*Heading
 Geometry-only visible roll/electrode assembly
** Job name: visible_roll_electrode Model name: visible_roll_electrode
** Generated by: Abaqus/CAE 2025
*Preprint, echo=NO, model=NO, history=NO, contact=NO
**
** PARTS
**
*Part, name=P_COATING
*Node
      1,         650., 0.0250000004,          60.
      2,           0., 0.0250000004,          60.
      3,           0.,           0.,          60.
      4,         650.,           0.,          60.
      5,         650., 0.0250000004,          50.
      6,           0., 0.0250000004,          50.
      7,           0.,           0.,          50.
      8,         650.,           0.,          50.
      9,         650., 0.0500000007,          60.
     10,         650.,  0.075000003,          60.
     11,           0.,  0.075000003,          60.
     12,           0., 0.0500000007,          60.
     13,         650., 0.0500000007,          50.
     14,         650.,  0.075000003,          50.
     15,           0.,  0.075000003,          50.
     16,           0., 0.0500000007,          50.
     17,         650., 0.0250000004,          80.
     18,           0., 0.0250000004,          80.
     19,           0.,           0.,          80.
     20,         650.,           0.,          80.
** ... 1168 like lines cut
*Element, type=C3D8R
 1,   5, 139, 188,   8,   1,  89, 138,   4
 2, 139, 140, 187, 188,  89,  90, 137, 138
 3, 140, 141, 186, 187,  90,  91, 136, 137
 4, 141, 142, 185, 186,  91,  92, 135, 136
 5, 142, 143, 184, 185,  92,  93, 134, 135
 6, 143, 144, 183, 184,  93,  94, 133, 134
 7, 144, 145, 182, 183,  94,  95, 132, 133
 8, 145, 146, 181, 182,  95,  96, 131, 132
 9, 146, 147, 180, 181,  96,  97, 130, 131
10, 147, 148, 179, 180,  97,  98, 129, 130
11, 148, 149, 178, 179,  98,  99, 128, 129
12, 149, 150, 177, 178,  99, 100, 127, 128
13, 150, 151, 176, 177, 100, 101, 126, 127
14, 151, 152, 175, 176, 101, 102, 125, 126
15, 152, 153, 174, 175, 102, 103, 124, 125
16, 153, 154, 173, 174, 103, 104, 123, 124
17, 154, 155, 172, 173, 104, 105, 122, 123
18, 155, 156, 171, 172, 105, 106, 121, 122
19, 156, 157, 170, 171, 106, 107, 120, 121
20, 157, 158, 169, 170, 107, 108, 119, 120
** ... 760 like lines cut
*Nset, nset=ALL_COATING, generate
    1,  1188,     1
*Elset, elset=ALL_COATING, generate
   1,  780,    1
*Nset, nset=SET_SYM_X0
  2,  3,  6,  7, 11, 12, 15, 16, 18, 19, 23, 24, 26, 27, 30, 31
 32, 35, 38, 40, 41, 44, 45, 46, 51, 52, 53, 56, 57, 60, 62, 64
 65, 67, 69, 70, 74, 75, 77, 79, 82, 84, 85, 87
*Elset, elset=SET_SYM_X0
  26,  52,  78, 104, 130, 156, 182, 208, 209, 235, 286, 287, 313, 339, 390, 416
 417, 443, 494, 495, 546, 547, 598, 624, 625, 676, 677, 703, 754, 755
*Nset, nset=SET_ELECTRODE_INLET
   79,   80,   81,   82,   85,   86,   87,   88, 1064, 1065, 1066, 1067, 1068, 1069, 1070, 1071
 1072, 1073, 1074, 1075, 1076, 1077, 1078, 1079, 1080, 1081, 1082, 1083, 1084, 1085, 1086, 1087
 1088, 1089, 1090, 1091, 1092, 1093, 1094, 1095, 1096, 1097, 1098, 1099, 1100, 1101, 1102, 1103
 1104, 1105, 1106, 1107, 1108, 1109, 1110, 1111, 1112, 1113, 1139, 1140, 1141, 1142, 1143, 1144
 1145, 1146, 1147, 1148, 1149, 1150, 1151, 1152, 1153, 1154, 1155, 1156, 1157, 1158, 1159, 1160
 1161, 1162, 1163, 1164, 1165, 1166, 1167, 1168, 1169, 1170, 1171, 1172, 1173, 1174, 1175, 1176
 1177, 1178, 1179, 1180, 1181, 1182, 1183, 1184, 1185, 1186, 1187, 1188
*Elset, elset=SET_ELECTRODE_INLET
 677, 678, 679, 680, 681, 682, 683, 684, 685, 686, 687, 688, 689, 690, 691, 692
 693, 694, 695, 696, 697, 698, 699, 700, 701, 702, 703, 704, 705, 706, 707, 708
 709, 710, 711, 712, 713, 714, 715, 716, 717, 718, 719, 720, 721, 722, 723, 724
 725, 726, 727, 728, 755, 756, 757, 758, 759, 760, 761, 762, 763, 764, 765, 766
 767, 768, 769, 770, 771, 772, 773, 774, 775, 776, 777, 778, 779, 780
*Nset, nset=SET_ELECTRODE_OUTLET
  17,  18,  19,  20,  21,  22,  23,  24, 289, 290, 291, 292, 293, 294, 295, 296
 297, 298, 299, 300, 301, 302, 303, 304, 305, 306, 307, 308, 309, 310, 311, 312
 313, 314, 315, 316, 317, 318, 319, 320, 321, 322, 323, 324, 325, 326, 327, 328
 329, 330, 331, 332, 333, 334, 335, 336, 337, 338, 339, 340, 341, 342, 343, 344
 345, 346, 347, 348, 349, 350, 351, 352, 353, 354, 355, 356, 357, 358, 359, 360
 361, 362, 363, 364, 365, 366, 367, 368, 369, 370, 371, 372, 373, 374, 375, 376
 377, 378, 379, 380, 381, 382, 383, 384, 385, 386, 387, 388
*Elset, elset=SET_ELECTRODE_OUTLET, generate
  53,  130,    1
*Elset, elset=_S_COATING_TOP_S4, internal
  27,  28,  29,  30,  31,  32,  33,  34,  35,  36,  37,  38,  39,  40,  41,  42
  43,  44,  45,  46,  47,  48,  49,  50,  51,  52,  79,  80,  81,  82,  83,  84
  85,  86,  87,  88,  89,  90,  91,  92,  93,  94,  95,  96,  97,  98,  99, 100
 101, 102, 103, 104, 157, 158, 159, 160, 161, 162, 163, 164, 165, 166, 167, 168
 169, 170, 171, 172, 173, 174, 175, 176, 177, 178, 179, 180, 181, 182, 755, 756
 757, 758, 759, 760, 761, 762, 763, 764, 765, 766, 767, 768, 769, 770, 771, 772
 773, 774, 775, 776, 777, 778, 779, 780
*Elset, elset=_S_COATING_TOP_S5, internal
 287, 288, 289, 290, 291, 292, 293, 294, 295, 296, 297, 298, 299, 300, 301, 302
 303, 304, 305, 306, 307, 308, 309, 310, 311, 312, 339, 340, 341, 342, 343, 344
 345, 346, 347, 348, 349, 350, 351, 352, 353, 354, 355, 356, 357, 358, 359, 360
 361, 362, 363, 364, 443, 444, 445, 446, 447, 448, 449, 450, 451, 452, 453, 454
 455, 456, 457, 458, 459, 460, 461, 462, 463, 464, 465, 466, 467, 468, 495, 496
 497, 498, 499, 500, 501, 502, 503, 504, 505, 506, 507, 508, 509, 510, 511, 512
 513, 514, 515, 516, 517, 518, 519, 520
*Elset, elset=_S_COATING_TOP_S6, internal
 547, 548, 549, 550, 551, 552, 553, 554, 555, 556, 557, 558, 559, 560, 561, 562
 563, 564, 565, 566, 567, 568, 569, 570, 571, 572, 625, 626, 627, 628, 629, 630
 631, 632, 633, 634, 635, 636, 637, 638, 639, 640, 641, 642, 643, 644, 645, 646
 647, 648, 649, 650
*Surface, type=ELEMENT, name=S_COATING_TOP
_S_COATING_TOP_S4, S4
_S_COATING_TOP_S5, S5
_S_COATING_TOP_S6, S6
** Section: SEC_COATING
*Solid Section, elset=ALL_COATING, material=COATING_DPC
,
*End Part
**  
*Part, name=P_COLLECTOR
*Node
      1,         675.,           0.,          60.
      2,         675., 0.00749999983,          60.
      3,         675., 0.00749999983,          80.
      4,         675.,           0.,          80.
      5,           0., 0.00749999983,          60.
      6,           0., 0.00749999983,          80.
      7,           0.,           0.,          80.
      8,           0.,           0.,          60.
      9,         675., 0.00749999983,          50.
     10,         675.,           0.,          50.
     11,         675.,           0.,          45.
     12,         675., 0.00749999983,          45.
     13,           0.,           0.,          50.
     14,           0.,           0.,          45.
     15,           0., 0.00749999983,          45.
     16,           0., 0.00749999983,          50.
     17,         675., 0.00749999983,          42.
     18,         675.,           0.,          42.
     19,         675.,           0.,          40.
     20,         675., 0.00749999983,          40.
** ... 596 like lines cut
*Element, type=C3D8R
 1,  96, 123, 122,  45,   1,   2,   3,   4
 2,  95, 124, 121,  46,  96, 123, 122,  45
 3,  94, 125, 120,  47,  95, 124, 121,  46
 4,  93, 126, 119,  48,  94, 125, 120,  47
 5,  92, 127, 118,  49,  93, 126, 119,  48
 6,  91, 128, 117,  50,  92, 127, 118,  49
 7,  90, 129, 116,  51,  91, 128, 117,  50
 8,  89, 130, 115,  52,  90, 129, 116,  51
 9,  88, 131, 114,  53,  89, 130, 115,  52
10,  87, 132, 113,  54,  88, 131, 114,  53
11,  86, 133, 112,  55,  87, 132, 113,  54
12,  85, 134, 111,  56,  86, 133, 112,  55
13,  84, 135, 110,  57,  85, 134, 111,  56
14,  83, 136, 109,  58,  84, 135, 110,  57
15,  82, 137, 108,  59,  83, 136, 109,  58
16,  81, 138, 107,  60,  82, 137, 108,  59
17,  80, 139, 106,  61,  81, 138, 107,  60
18,  79, 140, 105,  62,  80, 139, 106,  61
19,  78, 141, 104,  63,  79, 140, 105,  62
20,  77, 142, 103,  64,  78, 141, 104,  63
** ... 250 like lines cut
*Nset, nset=ALL_COLLECTOR, generate
   1,  616,    1
*Elset, elset=ALL_COLLECTOR, generate
   1,  270,    1
*Nset, nset=SET_SYM_X0
  5,  6,  7,  8, 13, 14, 15, 16, 21, 22, 23, 24, 29, 30, 31, 32
 37, 38, 39, 40, 41, 42
*Elset, elset=SET_SYM_X0
  27,  54,  81, 108, 109, 162, 163, 216, 217, 244
*Nset, nset=SET_SYM_Y0
   1,   4,   7,   8,  10,  11,  13,  14,  18,  19,  21,  22,  26,  27,  29,  30
  34,  35,  37,  38,  42,  44,  45,  46,  47,  48,  49,  50,  51,  52,  53,  54
  55,  56,  57,  58,  59,  60,  61,  62,  63,  64,  65,  66,  67,  68,  69,  70
  71,  72,  73,  74,  75,  76,  77,  78,  79,  80,  81,  82,  83,  84,  85,  86
  87,  88,  89,  90,  91,  92,  93,  94,  95,  96, 201, 202, 203, 204, 205, 206
 207, 208, 209, 210, 211, 212, 213, 214, 215, 216, 217, 218, 219, 220, 221, 222
 223, 224, 225, 226, 227, 228, 229, 230, 231, 232, 233, 234, 235, 236, 237, 238
 239, 240, 241, 242, 243, 244, 245, 246, 247, 248, 249, 250, 251, 252, 305, 306
 307, 308, 309, 310, 311, 312, 313, 314, 315, 316, 317, 318, 319, 320, 321, 322
 323, 324, 325, 326, 327, 328, 329, 330, 331, 332, 333, 334, 335, 336, 337, 338
 339, 340, 341, 342, 343, 344, 345, 346, 347, 348, 349, 350, 351, 352, 353, 354
 355, 356, 409, 410, 411, 412, 413, 414, 415, 416, 417, 418, 419, 420, 421, 422
 423, 424, 425, 426, 427, 428, 429, 430, 431, 432, 433, 434, 435, 436, 437, 438
 439, 440, 441, 442, 443, 444, 445, 446, 447, 448, 449, 450, 451, 452, 453, 454
 455, 456, 457, 458, 459, 460, 513, 514, 515, 516, 517, 518, 519, 520, 521, 522
 523, 524, 525, 526, 527, 528, 529, 530, 531, 532, 533, 534, 535, 536, 537, 538
 539, 540, 541, 542, 543, 544, 545, 546, 547, 548, 549, 550, 551, 552, 553, 554
 555, 556, 557, 558, 559, 560, 561, 562, 563, 564, 565, 566, 567, 568, 569, 570
 571, 572, 573, 574, 575, 576, 577, 578, 579, 580, 581, 582, 583, 584, 585, 586
 587, 588, 589, 590
*Elset, elset=SET_SYM_Y0, generate
   1,  270,    1
*Nset, nset=SET_ELECTRODE_INLET
  41,  42,  43,  44, 565, 566, 567, 568, 569, 570, 571, 572, 573, 574, 575, 576
 577, 578, 579, 580, 581, 582, 583, 584, 585, 586, 587, 588, 589, 590, 591, 592
 593, 594, 595, 596, 597, 598, 599, 600, 601, 602, 603, 604, 605, 606, 607, 608
 609, 610, 611, 612, 613, 614, 615, 616
*Elset, elset=SET_ELECTRODE_INLET, generate
 244,  270,    1
*Nset, nset=SET_ELECTRODE_OUTLET
   3,   4,   6,   7,  45,  46,  47,  48,  49,  50,  51,  52,  53,  54,  55,  56
  57,  58,  59,  60,  61,  62,  63,  64,  65,  66,  67,  68,  69,  70,  97,  98
  99, 100, 101, 102, 103, 104, 105, 106, 107, 108, 109, 110, 111, 112, 113, 114
 115, 116, 117, 118, 119, 120, 121, 122
*Elset, elset=SET_ELECTRODE_OUTLET, generate
  1,  27,   1
** Section: SEC_COLLECTOR
*Solid Section, elset=ALL_COLLECTOR, material=COLLECTOR_AL
,
*End Part
**  
*Part, name=P_ROLL_ANALYTIC_RIGID
*End Part
**  
**
** ASSEMBLY
**
*Assembly, name=Assembly
**  
*Instance, name=COLLECTOR-1, part=P_COLLECTOR
          0.,           0.,         -40.
*End Instance
**  
*Instance, name=COATING-1, part=P_COATING
          0.,       0.0075,         -40.
*End Instance
**  
*Instance, name=ROLL-1, part=P_ROLL_ANALYTIC_RIGID
          0.,     450.0825,           0.
          0.,     450.0825,           0.,           0.,     450.0825,          -1.,          90.
*Node
      1,           0.,        337.5,           0.
*Nset, nset=ROLL-1-RefPt_, internal
1, 
*Nset, nset=RP_ROLL
 1,
*Surface, type=REVOLUTION, name=S_ROLL
START,         450.,           0.
 LINE,         450.,         675.
*Rigid Body, ref node=ROLL-1-RefPt_, analytical surface=S_ROLL
*End Instance
**  
*Nset, nset=RP_ROLL, instance=ROLL-1
 1,
*Nset, nset=SET_ELECTRODE_INLET, instance=COLLECTOR-1
  41,  42,  43,  44, 565, 566, 567, 568, 569, 570, 571, 572, 573, 574, 575, 576
 577, 578, 579, 580, 581, 582, 583, 584, 585, 586, 587, 588, 589, 590, 591, 592
 593, 594, 595, 596, 597, 598, 599, 600, 601, 602, 603, 604, 605, 606, 607, 608
 609, 610, 611, 612, 613, 614, 615, 616
*Nset, nset=SET_ELECTRODE_INLET, instance=COATING-1
   79,   80,   81,   82,   85,   86,   87,   88, 1064, 1065, 1066, 1067, 1068, 1069, 1070, 1071
 1072, 1073, 1074, 1075, 1076, 1077, 1078, 1079, 1080, 1081, 1082, 1083, 1084, 1085, 1086, 1087
 1088, 1089, 1090, 1091, 1092, 1093, 1094, 1095, 1096, 1097, 1098, 1099, 1100, 1101, 1102, 1103
 1104, 1105, 1106, 1107, 1108, 1109, 1110, 1111, 1112, 1113, 1139, 1140, 1141, 1142, 1143, 1144
 1145, 1146, 1147, 1148, 1149, 1150, 1151, 1152, 1153, 1154, 1155, 1156, 1157, 1158, 1159, 1160
 1161, 1162, 1163, 1164, 1165, 1166, 1167, 1168, 1169, 1170, 1171, 1172, 1173, 1174, 1175, 1176
 1177, 1178, 1179, 1180, 1181, 1182, 1183, 1184, 1185, 1186, 1187, 1188
*Elset, elset=SET_ELECTRODE_INLET, instance=COLLECTOR-1, generate
 244,  270,    1
*Elset, elset=SET_ELECTRODE_INLET, instance=COATING-1
 677, 678, 679, 680, 681, 682, 683, 684, 685, 686, 687, 688, 689, 690, 691, 692
 693, 694, 695, 696, 697, 698, 699, 700, 701, 702, 703, 704, 705, 706, 707, 708
 709, 710, 711, 712, 713, 714, 715, 716, 717, 718, 719, 720, 721, 722, 723, 724
 725, 726, 727, 728, 755, 756, 757, 758, 759, 760, 761, 762, 763, 764, 765, 766
 767, 768, 769, 770, 771, 772, 773, 774, 775, 776, 777, 778, 779, 780
*Nset, nset=SET_ELECTRODE_INLET_COATING, instance=COATING-1
   79,   80,   81,   82,   85,   86,   87,   88, 1064, 1065, 1066, 1067, 1068, 1069, 1070, 1071
 1072, 1073, 1074, 1075, 1076, 1077, 1078, 1079, 1080, 1081, 1082, 1083, 1084, 1085, 1086, 1087
 1088, 1089, 1090, 1091, 1092, 1093, 1094, 1095, 1096, 1097, 1098, 1099, 1100, 1101, 1102, 1103
 1104, 1105, 1106, 1107, 1108, 1109, 1110, 1111, 1112, 1113, 1139, 1140, 1141, 1142, 1143, 1144
 1145, 1146, 1147, 1148, 1149, 1150, 1151, 1152, 1153, 1154, 1155, 1156, 1157, 1158, 1159, 1160
 1161, 1162, 1163, 1164, 1165, 1166, 1167, 1168, 1169, 1170, 1171, 1172, 1173, 1174, 1175, 1176
 1177, 1178, 1179, 1180, 1181, 1182, 1183, 1184, 1185, 1186, 1187, 1188
*Elset, elset=SET_ELECTRODE_INLET_COATING, instance=COATING-1
 677, 678, 679, 680, 681, 682, 683, 684, 685, 686, 687, 688, 689, 690, 691, 692
 693, 694, 695, 696, 697, 698, 699, 700, 701, 702, 703, 704, 705, 706, 707, 708
 709, 710, 711, 712, 713, 714, 715, 716, 717, 718, 719, 720, 721, 722, 723, 724
 725, 726, 727, 728, 755, 756, 757, 758, 759, 760, 761, 762, 763, 764, 765, 766
 767, 768, 769, 770, 771, 772, 773, 774, 775, 776, 777, 778, 779, 780
*Nset, nset=SET_ELECTRODE_INLET_COLLECTOR, instance=COLLECTOR-1
  41,  42,  43,  44, 565, 566, 567, 568, 569, 570, 571, 572, 573, 574, 575, 576
 577, 578, 579, 580, 581, 582, 583, 584, 585, 586, 587, 588, 589, 590, 591, 592
 593, 594, 595, 596, 597, 598, 599, 600, 601, 602, 603, 604, 605, 606, 607, 608
 609, 610, 611, 612, 613, 614, 615, 616
*Elset, elset=SET_ELECTRODE_INLET_COLLECTOR, instance=COLLECTOR-1, generate
 244,  270,    1
*Nset, nset=SET_ELECTRODE_OUTLET, instance=COLLECTOR-1
   3,   4,   6,   7,  45,  46,  47,  48,  49,  50,  51,  52,  53,  54,  55,  56
  57,  58,  59,  60,  61,  62,  63,  64,  65,  66,  67,  68,  69,  70,  97,  98
  99, 100, 101, 102, 103, 104, 105, 106, 107, 108, 109, 110, 111, 112, 113, 114
 115, 116, 117, 118, 119, 120, 121, 122
*Nset, nset=SET_ELECTRODE_OUTLET, instance=COATING-1
  17,  18,  19,  20,  21,  22,  23,  24, 289, 290, 291, 292, 293, 294, 295, 296
 297, 298, 299, 300, 301, 302, 303, 304, 305, 306, 307, 308, 309, 310, 311, 312
 313, 314, 315, 316, 317, 318, 319, 320, 321, 322, 323, 324, 325, 326, 327, 328
 329, 330, 331, 332, 333, 334, 335, 336, 337, 338, 339, 340, 341, 342, 343, 344
 345, 346, 347, 348, 349, 350, 351, 352, 353, 354, 355, 356, 357, 358, 359, 360
 361, 362, 363, 364, 365, 366, 367, 368, 369, 370, 371, 372, 373, 374, 375, 376
 377, 378, 379, 380, 381, 382, 383, 384, 385, 386, 387, 388
*Elset, elset=SET_ELECTRODE_OUTLET, instance=COLLECTOR-1, generate
  1,  27,   1
*Elset, elset=SET_ELECTRODE_OUTLET, instance=COATING-1, generate
  53,  130,    1
*Nset, nset=SET_ELECTRODE_OUTLET_COATING, instance=COATING-1
  17,  18,  19,  20,  21,  22,  23,  24, 289, 290, 291, 292, 293, 294, 295, 296
 297, 298, 299, 300, 301, 302, 303, 304, 305, 306, 307, 308, 309, 310, 311, 312
 313, 314, 315, 316, 317, 318, 319, 320, 321, 322, 323, 324, 325, 326, 327, 328
 329, 330, 331, 332, 333, 334, 335, 336, 337, 338, 339, 340, 341, 342, 343, 344
 345, 346, 347, 348, 349, 350, 351, 352, 353, 354, 355, 356, 357, 358, 359, 360
 361, 362, 363, 364, 365, 366, 367, 368, 369, 370, 371, 372, 373, 374, 375, 376
 377, 378, 379, 380, 381, 382, 383, 384, 385, 386, 387, 388
*Elset, elset=SET_ELECTRODE_OUTLET_COATING, instance=COATING-1, generate
  53,  130,    1
*Nset, nset=SET_ELECTRODE_OUTLET_COLLECTOR, instance=COLLECTOR-1
   3,   4,   6,   7,  45,  46,  47,  48,  49,  50,  51,  52,  53,  54,  55,  56
  57,  58,  59,  60,  61,  62,  63,  64,  65,  66,  67,  68,  69,  70,  97,  98
  99, 100, 101, 102, 103, 104, 105, 106, 107, 108, 109, 110, 111, 112, 113, 114
 115, 116, 117, 118, 119, 120, 121, 122
*Elset, elset=SET_ELECTRODE_OUTLET_COLLECTOR, instance=COLLECTOR-1, generate
  1,  27,   1
*Nset, nset=SET_SYM_X0, instance=COLLECTOR-1
  5,  6,  7,  8, 13, 14, 15, 16, 21, 22, 23, 24, 29, 30, 31, 32
 37, 38, 39, 40, 41, 42
*Nset, nset=SET_SYM_X0, instance=COATING-1
  2,  3,  6,  7, 11, 12, 15, 16, 18, 19, 23, 24, 26, 27, 30, 31
 32, 35, 38, 40, 41, 44, 45, 46, 51, 52, 53, 56, 57, 60, 62, 64
 65, 67, 69, 70, 74, 75, 77, 79, 82, 84, 85, 87
*Elset, elset=SET_SYM_X0, instance=COLLECTOR-1
  27,  54,  81, 108, 109, 162, 163, 216, 217, 244
*Elset, elset=SET_SYM_X0, instance=COATING-1
  26,  52,  78, 104, 130, 156, 182, 208, 209, 235, 286, 287, 313, 339, 390, 416
 417, 443, 494, 495, 546, 547, 598, 624, 625, 676, 677, 703, 754, 755
*Nset, nset=SET_SYM_X0_COATING, instance=COATING-1
  2,  3,  6,  7, 11, 12, 15, 16, 18, 19, 23, 24, 26, 27, 30, 31
 32, 35, 38, 40, 41, 44, 45, 46, 51, 52, 53, 56, 57, 60, 62, 64
 65, 67, 69, 70, 74, 75, 77, 79, 82, 84, 85, 87
*Elset, elset=SET_SYM_X0_COATING, instance=COATING-1
  26,  52,  78, 104, 130, 156, 182, 208, 209, 235, 286, 287, 313, 339, 390, 416
 417, 443, 494, 495, 546, 547, 598, 624, 625, 676, 677, 703, 754, 755
*Nset, nset=SET_SYM_X0_COLLECTOR, instance=COLLECTOR-1
  5,  6,  7,  8, 13, 14, 15, 16, 21, 22, 23, 24, 29, 30, 31, 32
 37, 38, 39, 40, 41, 42
*Elset, elset=SET_SYM_X0_COLLECTOR, instance=COLLECTOR-1
  27,  54,  81, 108, 109, 162, 163, 216, 217, 244
*Nset, nset=SET_SYM_Y0, instance=COLLECTOR-1
   1,   4,   7,   8,  10,  11,  13,  14,  18,  19,  21,  22,  26,  27,  29,  30
  34,  35,  37,  38,  42,  44,  45,  46,  47,  48,  49,  50,  51,  52,  53,  54
  55,  56,  57,  58,  59,  60,  61,  62,  63,  64,  65,  66,  67,  68,  69,  70
  71,  72,  73,  74,  75,  76,  77,  78,  79,  80,  81,  82,  83,  84,  85,  86
  87,  88,  89,  90,  91,  92,  93,  94,  95,  96, 201, 202, 203, 204, 205, 206
 207, 208, 209, 210, 211, 212, 213, 214, 215, 216, 217, 218, 219, 220, 221, 222
 223, 224, 225, 226, 227, 228, 229, 230, 231, 232, 233, 234, 235, 236, 237, 238
 239, 240, 241, 242, 243, 244, 245, 246, 247, 248, 249, 250, 251, 252, 305, 306
 307, 308, 309, 310, 311, 312, 313, 314, 315, 316, 317, 318, 319, 320, 321, 322
 323, 324, 325, 326, 327, 328, 329, 330, 331, 332, 333, 334, 335, 336, 337, 338
 339, 340, 341, 342, 343, 344, 345, 346, 347, 348, 349, 350, 351, 352, 353, 354
 355, 356, 409, 410, 411, 412, 413, 414, 415, 416, 417, 418, 419, 420, 421, 422
 423, 424, 425, 426, 427, 428, 429, 430, 431, 432, 433, 434, 435, 436, 437, 438
 439, 440, 441, 442, 443, 444, 445, 446, 447, 448, 449, 450, 451, 452, 453, 454
 455, 456, 457, 458, 459, 460, 513, 514, 515, 516, 517, 518, 519, 520, 521, 522
 523, 524, 525, 526, 527, 528, 529, 530, 531, 532, 533, 534, 535, 536, 537, 538
 539, 540, 541, 542, 543, 544, 545, 546, 547, 548, 549, 550, 551, 552, 553, 554
 555, 556, 557, 558, 559, 560, 561, 562, 563, 564, 565, 566, 567, 568, 569, 570
 571, 572, 573, 574, 575, 576, 577, 578, 579, 580, 581, 582, 583, 584, 585, 586
 587, 588, 589, 590
*Elset, elset=SET_SYM_Y0, instance=COLLECTOR-1, generate
   1,  270,    1
*Elset, elset=_S_COATING_TOP_S4, internal, instance=COATING-1
  27,  28,  29,  30,  31,  32,  33,  34,  35,  36,  37,  38,  39,  40,  41,  42
  43,  44,  45,  46,  47,  48,  49,  50,  51,  52,  79,  80,  81,  82,  83,  84
  85,  86,  87,  88,  89,  90,  91,  92,  93,  94,  95,  96,  97,  98,  99, 100
 101, 102, 103, 104, 157, 158, 159, 160, 161, 162, 163, 164, 165, 166, 167, 168
 169, 170, 171, 172, 173, 174, 175, 176, 177, 178, 179, 180, 181, 182, 755, 756
 757, 758, 759, 760, 761, 762, 763, 764, 765, 766, 767, 768, 769, 770, 771, 772
 773, 774, 775, 776, 777, 778, 779, 780
*Elset, elset=_S_COATING_TOP_S5, internal, instance=COATING-1
 287, 288, 289, 290, 291, 292, 293, 294, 295, 296, 297, 298, 299, 300, 301, 302
 303, 304, 305, 306, 307, 308, 309, 310, 311, 312, 339, 340, 341, 342, 343, 344
 345, 346, 347, 348, 349, 350, 351, 352, 353, 354, 355, 356, 357, 358, 359, 360
 361, 362, 363, 364, 443, 444, 445, 446, 447, 448, 449, 450, 451, 452, 453, 454
 455, 456, 457, 458, 459, 460, 461, 462, 463, 464, 465, 466, 467, 468, 495, 496
 497, 498, 499, 500, 501, 502, 503, 504, 505, 506, 507, 508, 509, 510, 511, 512
 513, 514, 515, 516, 517, 518, 519, 520
*Elset, elset=_S_COATING_TOP_S6, internal, instance=COATING-1
 547, 548, 549, 550, 551, 552, 553, 554, 555, 556, 557, 558, 559, 560, 561, 562
 563, 564, 565, 566, 567, 568, 569, 570, 571, 572, 625, 626, 627, 628, 629, 630
 631, 632, 633, 634, 635, 636, 637, 638, 639, 640, 641, 642, 643, 644, 645, 646
 647, 648, 649, 650
*Surface, type=ELEMENT, name=S_COATING_TOP
_S_COATING_TOP_S4, S4
_S_COATING_TOP_S5, S5
_S_COATING_TOP_S6, S6
*End Assembly
** 
** MATERIALS
** 
*Material, name=COATING_DPC
*Cap Plasticity
65.,   4.,  0.8, 0.01
*Cap Hardening
 55.,    0.
 58.,  0.05
 62.,   0.1
 72.,  0.15
 95.,   0.2
140.,  0.23
220.,  0.26
370.,  0.29
740., 0.325
*Density
 2.55e-09,
*Elastic
6500., 0.01
*Material, name=COLLECTOR_AL
*Density
 2.7e-09,
*Elastic
72000., 0.33
*Material, name=ROLL_STEEL
*Density
 7.93e-09,
*Elastic
193000., 0.2
