*Heading
 Clear display model; electrode Y scale is magnified.
** Job name: visible_roll_electrode_clear Model name: visible_roll_electrode_clear
** Generated by: Abaqus/CAE 2025
*Preprint, echo=NO, model=NO, history=NO, contact=NO
**
** PARTS
**
*Part, name=P_COATING_DISPLAY
*Node
      1,         650.,          25.,          60.
      2,           0.,          25.,          60.
      3,           0.,           0.,          60.
      4,         650.,           0.,          60.
      5,         650.,          25.,          50.
      6,           0.,          25.,          50.
      7,           0.,           0.,          50.
      8,         650.,           0.,          50.
      9,         650.,          50.,          60.
     10,         650.,          75.,          60.
     11,           0.,          75.,          60.
     12,           0.,          50.,          60.
     13,         650.,          50.,          50.
     14,         650.,          75.,          50.
     15,           0.,          75.,          50.
     16,           0.,          50.,          50.
     17,         650.,          25.,          80.
     18,           0.,          25.,          80.
     19,           0.,           0.,          80.
     20,         650.,           0.,          80.
** ... 8560 like lines cut
*Element, type=C3D8R
  1,    5,  221, 3181,  352,    1,   89, 3053,  220
  2,  221,  222, 3182, 3181,   89,   90, 3054, 3053
  3,  222,  223, 3183, 3182,   90,   91, 3055, 3054
  4,  223,  224, 3184, 3183,   91,   92, 3056, 3055
  5,  224,  225, 3185, 3184,   92,   93, 3057, 3056
  6,  225,  226, 3186, 3185,   93,   94, 3058, 3057
  7,  226,  227, 3187, 3186,   94,   95, 3059, 3058
  8,  227,  228, 3188, 3187,   95,   96, 3060, 3059
  9,  228,  229, 3189, 3188,   96,   97, 3061, 3060
 10,  229,  230, 3190, 3189,   97,   98, 3062, 3061
 11,  230,  231, 3191, 3190,   98,   99, 3063, 3062
 12,  231,  232, 3192, 3191,   99,  100, 3064, 3063
 13,  232,  233, 3193, 3192,  100,  101, 3065, 3064
 14,  233,  234, 3194, 3193,  101,  102, 3066, 3065
 15,  234,  235, 3195, 3194,  102,  103, 3067, 3066
 16,  235,  236, 3196, 3195,  103,  104, 3068, 3067
 17,  236,  237, 3197, 3196,  104,  105, 3069, 3068
 18,  237,  238, 3198, 3197,  105,  106, 3070, 3069
 19,  238,  239, 3199, 3198,  106,  107, 3071, 3070
 20,  239,  240, 3200, 3199,  107,  108, 3072, 3071
** ... 7000 like lines cut
*Nset, nset=ALL_COATING, generate
    1,  8580,     1
*Elset, elset=ALL_COATING, generate
    1,  7020,     1
** Section: SEC_COATING
*Solid Section, elset=ALL_COATING, material=COATING_DPC
,
*End Part
**  
*Part, name=P_COLLECTOR_DISPLAY
*Node
      1,         675.,           0.,          60.
      2,         675.,          7.5,          60.
      3,         675.,          7.5,          80.
      4,         675.,           0.,          80.
      5,           0.,          7.5,          60.
      6,           0.,          7.5,          80.
      7,           0.,           0.,          80.
      8,           0.,           0.,          60.
      9,         675.,          7.5,          50.
     10,         675.,           0.,          50.
     11,         675.,           0.,          45.
     12,         675.,          7.5,          45.
     13,           0.,           0.,          50.
     14,           0.,           0.,          45.
     15,           0.,          7.5,          45.
     16,           0.,          7.5,          50.
     17,         675.,          7.5,          42.
     18,         675.,           0.,          42.
     19,         675.,           0.,          40.
     20,         675.,          7.5,          40.
** ... 1774 like lines cut
*Element, type=C3D8R
  1,  182,  250, 1594, 1527,    1,    2,   45,   46
  2, 1527, 1594,  249,   49,   46,   45,    3,    4
  3,  181,  251, 1595, 1528,  182,  250, 1594, 1527
  4, 1528, 1595,  248,   50, 1527, 1594,  249,   49
  5,  180,  252, 1596, 1529,  181,  251, 1595, 1528
  6, 1529, 1596,  247,   51, 1528, 1595,  248,   50
  7,  179,  253, 1597, 1530,  180,  252, 1596, 1529
  8, 1530, 1597,  246,   52, 1529, 1596,  247,   51
  9,  178,  254, 1598, 1531,  179,  253, 1597, 1530
 10, 1531, 1598,  245,   53, 1530, 1597,  246,   52
 11,  177,  255, 1599, 1532,  178,  254, 1598, 1531
 12, 1532, 1599,  244,   54, 1531, 1598,  245,   53
 13,  176,  256, 1600, 1533,  177,  255, 1599, 1532
 14, 1533, 1600,  243,   55, 1532, 1599,  244,   54
 15,  175,  257, 1601, 1534,  176,  256, 1600, 1533
 16, 1534, 1601,  242,   56, 1533, 1600,  243,   55
 17,  174,  258, 1602, 1535,  175,  257, 1601, 1534
 18, 1535, 1602,  241,   57, 1534, 1601,  242,   56
 19,  173,  259, 1603, 1536,  174,  258, 1602, 1535
 20, 1536, 1603,  240,   58, 1535, 1602,  241,   57
** ... 796 like lines cut
*Nset, nset=ALL_COLLECTOR, generate
    1,  1794,     1
*Elset, elset=ALL_COLLECTOR, generate
   1,  816,    1
** Section: SEC_COLLECTOR
*Solid Section, elset=ALL_COLLECTOR, material=COLLECTOR_AL
,
*End Part
**  
*Part, name=P_ROLL_DISPLAY_SHELL
*Node
      1,   447.763855,  -44.8055305,         675.
      2,   441.077606,  -89.1657639,         675.
      3,   430.007751,  -132.639832,         675.
      4,   414.664307,  -174.795654,         675.
      5,   395.199707,  -215.214294,         675.
      6,   371.807434,  -253.494019,         675.
      7,   344.720001,  -289.254425,         675.
      8,   314.206573,  -322.140076,         675.
      9,   280.570404,  -351.824158,         675.
     10,   244.145813,  -378.011658,         675.
     11,     205.2948,  -400.442322,         675.
     12,   164.403458,  -418.893188,         675.
     13,   121.878212,  -433.180908,         675.
     14,   78.1416779,  -443.163483,         675.
     15,   33.6285439,  -448.741699,         675.
     16,   -11.218811,  -449.860138,         675.
     17,  -55.9546661,  -446.507629,         675.
     18,  -100.134422,   -438.71756,         675.
     19,  -143.318985,  -426.567291,         675.
     20,  -185.079193,  -410.177643,         675.
** ... 988 like lines cut
*Element, type=S4R
  1,   63,    1,   64,  126
  2,    1,    2,   65,   64
  3,    2,    3,   66,   65
  4,    3,    4,   67,   66
  5,    4,    5,   68,   67
  6,    5,    6,   69,   68
  7,    6,    7,   70,   69
  8,    7,    8,   71,   70
  9,    8,    9,   72,   71
 10,    9,   10,   73,   72
 11,   10,   11,   74,   73
 12,   11,   12,   75,   74
 13,   12,   13,   76,   75
 14,   13,   14,   77,   76
 15,   14,   15,   78,   77
 16,   15,   16,   79,   78
 17,   16,   17,   80,   79
 18,   17,   18,   81,   80
 19,   18,   19,   82,   81
 20,   19,   20,   83,   82
** ... 925 like lines cut
*Node
   1009,           0.,           0.,        337.5
*Nset, nset=P_ROLL_DISPLAY_SHELL-RefPt_, internal
1009, 
*Nset, nset=ALL_ROLL_DISPLAY, generate
    1,  1008,     1
*Elset, elset=ALL_ROLL_DISPLAY, generate
   1,  945,    1
*Nset, nset=RP_ROLL
 1009,
*Elset, elset=_S_ROLL_SPOS, internal, generate
   1,  945,    1
*Surface, type=ELEMENT, name=S_ROLL
_S_ROLL_SPOS, SPOS
** Section: SEC_ROLL_DISPLAY
*Shell Section, elset=ALL_ROLL_DISPLAY, material=ROLL_STEEL_DISPLAY
2., 5
*End Part
**  
**
** ASSEMBLY
**
*Assembly, name=Assembly
**  
*Instance, name=COLLECTOR-1, part=P_COLLECTOR_DISPLAY
          0.,           0.,         -40.
*End Instance
**  
*Instance, name=COATING-1, part=P_COATING_DISPLAY
          0.,          7.5,         -40.
*End Instance
**  
*Instance, name=ROLL-1, part=P_ROLL_DISPLAY_SHELL
          0.,        532.5,           0.
          0.,        532.5,           0.,           0.,        533.5,           0.,          90.
*End Instance
**  
*Nset, nset=RP_ROLL, instance=ROLL-1
 1009,
*Nset, nset=SET_ELECTRODE_INLET, instance=COLLECTOR-1
   41,   42,   43,   44, 1393, 1394, 1395, 1396, 1397, 1398, 1399, 1400, 1401, 1402, 1403, 1404
 1405, 1406, 1407, 1408, 1409, 1410, 1411, 1412, 1413, 1414, 1415, 1416, 1417, 1418, 1419, 1420
 1421, 1422, 1423, 1424, 1425, 1426, 1427, 1428, 1429, 1430, 1431, 1432, 1433, 1434, 1435, 1436
 1437, 1438, 1439, 1440, 1441, 1442, 1443, 1444, 1445, 1446, 1447, 1448, 1449, 1450, 1451, 1452
 1453, 1454, 1455, 1456, 1457, 1458, 1459, 1460, 1461, 1462, 1463, 1464, 1465, 1466, 1467, 1468
 1469, 1470, 1471, 1472, 1473, 1474, 1475, 1476, 1477, 1478, 1479, 1480, 1481, 1482, 1483, 1484
 1485, 1486, 1487, 1488, 1489, 1490, 1491, 1492, 1493, 1494, 1495, 1496, 1497, 1498, 1499, 1500
 1501, 1502, 1503, 1504, 1505, 1506, 1507, 1508, 1509, 1510, 1511, 1512, 1513, 1514, 1515, 1516
 1517, 1518, 1519, 1520, 1521, 1522, 1523, 1524, 1525, 1526
*Nset, nset=SET_ELECTRODE_INLET, instance=COATING-1
   79,   80,   81,   82,   85,   86,   87,   88, 2709, 2710, 2711, 2712, 2713, 2714, 2715, 2716
 2717, 2718, 2719, 2720, 2721, 2722, 2723, 2724, 2725, 2726, 2727, 2728, 2729, 2730, 2731, 2732
 2733, 2734, 2735, 2736, 2737, 2738, 2739, 2740, 2741, 2742, 2743, 2744, 2745, 2746, 2747, 2748
 2749, 2750, 2751, 2752, 2753, 2754, 2755, 2756, 2757, 2758, 2759, 2760, 2761, 2762, 2763, 2764
 2765, 2766, 2767, 2768, 2769, 2770, 2771, 2772, 2773, 2774, 2775, 2776, 2777, 2778, 2779, 2780
 2781, 2782, 2783, 2784, 2785, 2786, 2787, 2788, 2789, 2790, 2791, 2792, 2793, 2794, 2795, 2796
 2797, 2798, 2799, 2800, 2801, 2802, 2803, 2804, 2805, 2806, 2807, 2808, 2809, 2810, 2811, 2812
 2813, 2814, 2815, 2816, 2817, 2818, 2819, 2820, 2821, 2822, 2823, 2824, 2825, 2826, 2827, 2828
 2829, 2830, 2831, 2832, 2833, 2834, 2835, 2836, 2837, 2838, 2839, 2840, 2913, 2914, 2915, 2916
 2917, 2918, 2919, 2920, 2921, 2922, 2923, 2924, 2925, 2926, 2927, 2928, 2929, 2930, 2931, 2932
 2933, 2934, 2935, 2936, 2937, 2938, 2939, 2940, 2941, 2942, 2943, 2944, 2945, 2946, 2947, 2948
 2949, 2950, 2951, 2952, 2953, 2954, 2955, 2956, 2957, 2958, 2959, 2960, 2961, 2962, 2963, 2964
 2965, 2966, 2967, 2968, 2969, 2970, 2971, 2972, 2973, 2974, 2975, 2976, 2977, 2978, 2979, 2980
 2984, 2985, 2987, 2988, 2989, 2990, 2991, 2992, 2993, 2994, 2995, 2996, 2997, 2998, 2999, 3000
 3001, 3002, 3003, 3004, 3005, 3006, 3007, 3008, 3009, 3010, 3011, 3012, 3013, 3014, 3015, 3016
 3017, 3018, 3019, 3020, 3021, 3022, 3023, 3024, 3025, 3026, 3027, 3028, 3029, 3030, 3031, 3032
 3033, 3034, 3035, 3036, 3037, 3038, 3039, 3040, 3041, 3042, 3043, 3044, 3045, 3046, 3047, 3048
 3049, 3050, 3051, 3052, 7033, 7034, 7035, 7036, 7037, 7038, 7039, 7040, 7041, 7042, 7043, 7044
 7045, 7046, 7047, 7048, 7049, 7050, 7051, 7052, 7053, 7054, 7055, 7056, 7057, 7058, 7059, 7060
 7061, 7062, 7063, 7064, 7065, 7066, 7067, 7068, 7069, 7070, 7071, 7072, 7073, 7074, 7075, 7076
** ... 22 like lines cut
*Elset, elset=SET_ELECTRODE_INLET, instance=COLLECTOR-1, generate
 682,  816,    2
*Elset, elset=SET_ELECTRODE_INLET, instance=COATING-1
 5656, 5657, 5658, 5659, 5660, 5661, 5662, 5663, 5664, 5665, 5666, 5667, 5668, 5669, 5670, 5671
 5672, 5673, 5674, 5675, 5676, 5677, 5678, 5679, 5680, 5681, 5682, 5683, 5684, 5685, 5686, 5687
 5688, 5689, 5690, 5691, 5692, 5693, 5694, 5695, 5696, 5697, 5698, 5699, 5700, 5701, 5702, 5703
 5704, 5705, 5706, 5707, 5708, 5709, 5710, 5711, 5712, 5713, 5714, 5715, 5716, 5717, 5718, 5719
 5720, 5721, 5722, 5723, 5724, 5725, 5726, 5727, 5728, 5729, 5730, 5731, 5732, 5733, 5734, 5735
 5736, 5737, 5738, 5739, 5740, 5741, 5742, 5743, 5744, 5745, 5746, 5747, 5748, 5749, 5750, 5751
 5752, 5753, 5754, 5755, 5756, 5757, 5758, 5759, 5760, 5761, 5762, 5763, 5764, 5765, 5766, 5767
 5768, 5769, 5770, 5771, 5772, 5773, 5774, 5775, 5776, 5777, 5778, 5779, 5780, 5781, 5782, 5783
 5784, 5785, 5786, 5787, 5788, 5789, 5790, 5791, 5792, 5793, 5794, 5795, 5796, 5797, 5798, 5799
 5800, 5801, 5802, 5803, 5804, 5805, 5806, 5807, 5808, 5809, 5810, 5811, 5812, 5813, 5814, 5815
 5816, 5817, 5818, 5819, 5820, 5821, 5822, 5823, 5824, 5825, 5826, 5827, 5828, 5829, 5830, 5831
 5832, 5833, 5834, 5835, 5836, 5837, 5838, 5839, 5840, 5841, 5842, 5843, 5844, 5845, 5846, 5847
 5848, 5849, 5850, 6046, 6047, 6048, 6049, 6050, 6051, 6052, 6053, 6054, 6055, 6056, 6057, 6058
 6059, 6060, 6061, 6062, 6063, 6064, 6065, 6066, 6067, 6068, 6069, 6070, 6071, 6072, 6073, 6074
 6075, 6076, 6077, 6078, 6079, 6080, 6081, 6082, 6083, 6084, 6085, 6086, 6087, 6088, 6089, 6090
 6091, 6092, 6093, 6094, 6095, 6096, 6097, 6098, 6099, 6100, 6101, 6102, 6103, 6104, 6105, 6106
 6107, 6108, 6109, 6110, 6111, 6112, 6113, 6114, 6115, 6116, 6117, 6118, 6119, 6120, 6121, 6122
 6123, 6124, 6125, 6126, 6127, 6128, 6129, 6130, 6131, 6132, 6133, 6134, 6135, 6136, 6137, 6138
 6139, 6140, 6141, 6142, 6143, 6144, 6145, 6146, 6147, 6148, 6149, 6150, 6151, 6152, 6153, 6154
 6155, 6156, 6157, 6158, 6159, 6160, 6161, 6162, 6163, 6164, 6165, 6166, 6167, 6168, 6169, 6170
** ... 17 like lines cut
*Nset, nset=SET_ELECTRODE_INLET_COATING, instance=COATING-1
   79,   80,   81,   82,   85,   86,   87,   88, 2709, 2710, 2711, 2712, 2713, 2714, 2715, 2716
 2717, 2718, 2719, 2720, 2721, 2722, 2723, 2724, 2725, 2726, 2727, 2728, 2729, 2730, 2731, 2732
 2733, 2734, 2735, 2736, 2737, 2738, 2739, 2740, 2741, 2742, 2743, 2744, 2745, 2746, 2747, 2748
 2749, 2750, 2751, 2752, 2753, 2754, 2755, 2756, 2757, 2758, 2759, 2760, 2761, 2762, 2763, 2764
 2765, 2766, 2767, 2768, 2769, 2770, 2771, 2772, 2773, 2774, 2775, 2776, 2777, 2778, 2779, 2780
 2781, 2782, 2783, 2784, 2785, 2786, 2787, 2788, 2789, 2790, 2791, 2792, 2793, 2794, 2795, 2796
 2797, 2798, 2799, 2800, 2801, 2802, 2803, 2804, 2805, 2806, 2807, 2808, 2809, 2810, 2811, 2812
 2813, 2814, 2815, 2816, 2817, 2818, 2819, 2820, 2821, 2822, 2823, 2824, 2825, 2826, 2827, 2828
 2829, 2830, 2831, 2832, 2833, 2834, 2835, 2836, 2837, 2838, 2839, 2840, 2913, 2914, 2915, 2916
 2917, 2918, 2919, 2920, 2921, 2922, 2923, 2924, 2925, 2926, 2927, 2928, 2929, 2930, 2931, 2932
 2933, 2934, 2935, 2936, 2937, 2938, 2939, 2940, 2941, 2942, 2943, 2944, 2945, 2946, 2947, 2948
 2949, 2950, 2951, 2952, 2953, 2954, 2955, 2956, 2957, 2958, 2959, 2960, 2961, 2962, 2963, 2964
 2965, 2966, 2967, 2968, 2969, 2970, 2971, 2972, 2973, 2974, 2975, 2976, 2977, 2978, 2979, 2980
 2984, 2985, 2987, 2988, 2989, 2990, 2991, 2992, 2993, 2994, 2995, 2996, 2997, 2998, 2999, 3000
 3001, 3002, 3003, 3004, 3005, 3006, 3007, 3008, 3009, 3010, 3011, 3012, 3013, 3014, 3015, 3016
 3017, 3018, 3019, 3020, 3021, 3022, 3023, 3024, 3025, 3026, 3027, 3028, 3029, 3030, 3031, 3032
 3033, 3034, 3035, 3036, 3037, 3038, 3039, 3040, 3041, 3042, 3043, 3044, 3045, 3046, 3047, 3048
 3049, 3050, 3051, 3052, 7033, 7034, 7035, 7036, 7037, 7038, 7039, 7040, 7041, 7042, 7043, 7044
 7045, 7046, 7047, 7048, 7049, 7050, 7051, 7052, 7053, 7054, 7055, 7056, 7057, 7058, 7059, 7060
 7061, 7062, 7063, 7064, 7065, 7066, 7067, 7068, 7069, 7070, 7071, 7072, 7073, 7074, 7075, 7076
** ... 22 like lines cut
*Elset, elset=SET_ELECTRODE_INLET_COATING, instance=COATING-1
 5656, 5657, 5658, 5659, 5660, 5661, 5662, 5663, 5664, 5665, 5666, 5667, 5668, 5669, 5670, 5671
 5672, 5673, 5674, 5675, 5676, 5677, 5678, 5679, 5680, 5681, 5682, 5683, 5684, 5685, 5686, 5687
 5688, 5689, 5690, 5691, 5692, 5693, 5694, 5695, 5696, 5697, 5698, 5699, 5700, 5701, 5702, 5703
 5704, 5705, 5706, 5707, 5708, 5709, 5710, 5711, 5712, 5713, 5714, 5715, 5716, 5717, 5718, 5719
 5720, 5721, 5722, 5723, 5724, 5725, 5726, 5727, 5728, 5729, 5730, 5731, 5732, 5733, 5734, 5735
 5736, 5737, 5738, 5739, 5740, 5741, 5742, 5743, 5744, 5745, 5746, 5747, 5748, 5749, 5750, 5751
 5752, 5753, 5754, 5755, 5756, 5757, 5758, 5759, 5760, 5761, 5762, 5763, 5764, 5765, 5766, 5767
 5768, 5769, 5770, 5771, 5772, 5773, 5774, 5775, 5776, 5777, 5778, 5779, 5780, 5781, 5782, 5783
 5784, 5785, 5786, 5787, 5788, 5789, 5790, 5791, 5792, 5793, 5794, 5795, 5796, 5797, 5798, 5799
 5800, 5801, 5802, 5803, 5804, 5805, 5806, 5807, 5808, 5809, 5810, 5811, 5812, 5813, 5814, 5815
 5816, 5817, 5818, 5819, 5820, 5821, 5822, 5823, 5824, 5825, 5826, 5827, 5828, 5829, 5830, 5831
 5832, 5833, 5834, 5835, 5836, 5837, 5838, 5839, 5840, 5841, 5842, 5843, 5844, 5845, 5846, 5847
 5848, 5849, 5850, 6046, 6047, 6048, 6049, 6050, 6051, 6052, 6053, 6054, 6055, 6056, 6057, 6058
 6059, 6060, 6061, 6062, 6063, 6064, 6065, 6066, 6067, 6068, 6069, 6070, 6071, 6072, 6073, 6074
 6075, 6076, 6077, 6078, 6079, 6080, 6081, 6082, 6083, 6084, 6085, 6086, 6087, 6088, 6089, 6090
 6091, 6092, 6093, 6094, 6095, 6096, 6097, 6098, 6099, 6100, 6101, 6102, 6103, 6104, 6105, 6106
 6107, 6108, 6109, 6110, 6111, 6112, 6113, 6114, 6115, 6116, 6117, 6118, 6119, 6120, 6121, 6122
 6123, 6124, 6125, 6126, 6127, 6128, 6129, 6130, 6131, 6132, 6133, 6134, 6135, 6136, 6137, 6138
 6139, 6140, 6141, 6142, 6143, 6144, 6145, 6146, 6147, 6148, 6149, 6150, 6151, 6152, 6153, 6154
 6155, 6156, 6157, 6158, 6159, 6160, 6161, 6162, 6163, 6164, 6165, 6166, 6167, 6168, 6169, 6170
** ... 17 like lines cut
*Nset, nset=SET_ELECTRODE_INLET_COLLECTOR, instance=COLLECTOR-1
   41,   42,   43,   44, 1393, 1394, 1395, 1396, 1397, 1398, 1399, 1400, 1401, 1402, 1403, 1404
 1405, 1406, 1407, 1408, 1409, 1410, 1411, 1412, 1413, 1414, 1415, 1416, 1417, 1418, 1419, 1420
 1421, 1422, 1423, 1424, 1425, 1426, 1427, 1428, 1429, 1430, 1431, 1432, 1433, 1434, 1435, 1436
 1437, 1438, 1439, 1440, 1441, 1442, 1443, 1444, 1445, 1446, 1447, 1448, 1449, 1450, 1451, 1452
 1453, 1454, 1455, 1456, 1457, 1458, 1459, 1460, 1461, 1462, 1463, 1464, 1465, 1466, 1467, 1468
 1469, 1470, 1471, 1472, 1473, 1474, 1475, 1476, 1477, 1478, 1479, 1480, 1481, 1482, 1483, 1484
 1485, 1486, 1487, 1488, 1489, 1490, 1491, 1492, 1493, 1494, 1495, 1496, 1497, 1498, 1499, 1500
 1501, 1502, 1503, 1504, 1505, 1506, 1507, 1508, 1509, 1510, 1511, 1512, 1513, 1514, 1515, 1516
 1517, 1518, 1519, 1520, 1521, 1522, 1523, 1524, 1525, 1526
*Elset, elset=SET_ELECTRODE_INLET_COLLECTOR, instance=COLLECTOR-1, generate
 682,  816,    2
*Nset, nset=SET_ELECTRODE_OUTLET, instance=COLLECTOR-1
   3,   4,   6,   7,  49,  50,  51,  52,  53,  54,  55,  56,  57,  58,  59,  60
  61,  62,  63,  64,  65,  66,  67,  68,  69,  70,  71,  72,  73,  74,  75,  76
  77,  78,  79,  80,  81,  82,  83,  84,  85,  86,  87,  88,  89,  90,  91,  92
  93,  94,  95,  96,  97,  98,  99, 100, 101, 102, 103, 104, 105, 106, 107, 108
 109, 110, 111, 112, 113, 114, 115, 183, 184, 185, 186, 187, 188, 189, 190, 191
 192, 193, 194, 195, 196, 197, 198, 199, 200, 201, 202, 203, 204, 205, 206, 207
 208, 209, 210, 211, 212, 213, 214, 215, 216, 217, 218, 219, 220, 221, 222, 223
 224, 225, 226, 227, 228, 229, 230, 231, 232, 233, 234, 235, 236, 237, 238, 239
 240, 241, 242, 243, 244, 245, 246, 247, 248, 249
*Nset, nset=SET_ELECTRODE_OUTLET, instance=COATING-1
   17,   18,   19,   20,   21,   22,   23,   24,  617,  618,  619,  620,  621,  622,  623,  624
  625,  626,  627,  628,  629,  630,  631,  632,  633,  634,  635,  636,  637,  638,  639,  640
  641,  642,  643,  644,  645,  646,  647,  648,  649,  650,  651,  652,  653,  654,  655,  656
  657,  658,  659,  660,  661,  662,  663,  664,  665,  666,  667,  668,  669,  670,  671,  672
  673,  674,  675,  676,  677,  678,  679,  680,  681,  682,  683,  684,  685,  686,  687,  688
  689,  690,  691,  692,  693,  694,  695,  696,  697,  698,  699,  700,  701,  702,  703,  704
  705,  706,  707,  708,  709,  710,  711,  712,  713,  714,  715,  716,  717,  718,  719,  720
  721,  722,  723,  724,  725,  726,  727,  728,  729,  730,  731,  732,  733,  734,  735,  736
  737,  738,  739,  740,  741,  742,  743,  744,  745,  746,  747,  748,  753,  754,  755,  756
  757,  758,  759,  760,  761,  762,  763,  764,  765,  766,  767,  768,  769,  770,  771,  772
  773,  774,  775,  776,  777,  778,  779,  780,  781,  782,  783,  784,  785,  786,  787,  788
  789,  790,  791,  792,  793,  794,  795,  796,  797,  798,  799,  800,  801,  802,  803,  804
  805,  806,  807,  808,  809,  810,  811,  812,  813,  814,  815,  816,  817,  818,  819,  820
  821,  822,  823,  824,  825,  826,  827,  828,  829,  830,  831,  832,  833,  834,  835,  836
  837,  838,  839,  840,  841,  842,  843,  844,  845,  846,  847,  848,  849,  850,  851,  852
  853,  854,  855,  856,  857,  858,  859,  860,  861,  862,  863,  864,  865,  866,  867,  868
  869,  870,  871,  872,  873,  874,  875,  876,  877,  878,  879,  880,  881,  882,  883,  884
  891,  892,  895,  896, 3565, 3566, 3567, 3568, 3569, 3570, 3571, 3572, 3573, 3574, 3575, 3576
 3577, 3578, 3579, 3580, 3581, 3582, 3583, 3584, 3585, 3586, 3587, 3588, 3589, 3590, 3591, 3592
 3593, 3594, 3595, 3596, 3597, 3598, 3599, 3600, 3601, 3602, 3603, 3604, 3605, 3606, 3607, 3608
** ... 22 like lines cut
*Elset, elset=SET_ELECTRODE_OUTLET, instance=COLLECTOR-1, generate
   2,  136,    2
*Elset, elset=SET_ELECTRODE_OUTLET, instance=COATING-1
  586,  587,  588,  589,  590,  591,  592,  593,  594,  595,  596,  597,  598,  599,  600,  601
  602,  603,  604,  605,  606,  607,  608,  609,  610,  611,  612,  613,  614,  615,  616,  617
  618,  619,  620,  621,  622,  623,  624,  625,  626,  627,  628,  629,  630,  631,  632,  633
  634,  635,  636,  637,  638,  639,  640,  641,  642,  643,  644,  645,  646,  647,  648,  649
  650,  651,  652,  653,  654,  655,  656,  657,  658,  659,  660,  661,  662,  663,  664,  665
  666,  667,  668,  669,  670,  671,  672,  673,  674,  675,  676,  677,  678,  679,  680,  681
  682,  683,  684,  685,  686,  687,  688,  689,  690,  691,  692,  693,  694,  695,  696,  697
  698,  699,  700,  701,  702,  703,  704,  705,  706,  707,  708,  709,  710,  711,  712,  713
  714,  715,  716,  717,  718,  719,  720,  721,  722,  723,  724,  725,  726,  727,  728,  729
  730,  731,  732,  733,  734,  735,  736,  737,  738,  739,  740,  741,  742,  743,  744,  745
  746,  747,  748,  749,  750,  751,  752,  753,  754,  755,  756,  757,  758,  759,  760,  761
  762,  763,  764,  765,  766,  767,  768,  769,  770,  771,  772,  773,  774,  775,  776,  777
  778,  779,  780,  976,  977,  978,  979,  980,  981,  982,  983,  984,  985,  986,  987,  988
  989,  990,  991,  992,  993,  994,  995,  996,  997,  998,  999, 1000, 1001, 1002, 1003, 1004
 1005, 1006, 1007, 1008, 1009, 1010, 1011, 1012, 1013, 1014, 1015, 1016, 1017, 1018, 1019, 1020
 1021, 1022, 1023, 1024, 1025, 1026, 1027, 1028, 1029, 1030, 1031, 1032, 1033, 1034, 1035, 1036
 1037, 1038, 1039, 1040, 1041, 1042, 1043, 1044, 1045, 1046, 1047, 1048, 1049, 1050, 1051, 1052
 1053, 1054, 1055, 1056, 1057, 1058, 1059, 1060, 1061, 1062, 1063, 1064, 1065, 1066, 1067, 1068
 1069, 1070, 1071, 1072, 1073, 1074, 1075, 1076, 1077, 1078, 1079, 1080, 1081, 1082, 1083, 1084
 1085, 1086, 1087, 1088, 1089, 1090, 1091, 1092, 1093, 1094, 1095, 1096, 1097, 1098, 1099, 1100
** ... 17 like lines cut
*Nset, nset=SET_ELECTRODE_OUTLET_COATING, instance=COATING-1
   17,   18,   19,   20,   21,   22,   23,   24,  617,  618,  619,  620,  621,  622,  623,  624
  625,  626,  627,  628,  629,  630,  631,  632,  633,  634,  635,  636,  637,  638,  639,  640
  641,  642,  643,  644,  645,  646,  647,  648,  649,  650,  651,  652,  653,  654,  655,  656
  657,  658,  659,  660,  661,  662,  663,  664,  665,  666,  667,  668,  669,  670,  671,  672
  673,  674,  675,  676,  677,  678,  679,  680,  681,  682,  683,  684,  685,  686,  687,  688
  689,  690,  691,  692,  693,  694,  695,  696,  697,  698,  699,  700,  701,  702,  703,  704
  705,  706,  707,  708,  709,  710,  711,  712,  713,  714,  715,  716,  717,  718,  719,  720
  721,  722,  723,  724,  725,  726,  727,  728,  729,  730,  731,  732,  733,  734,  735,  736
  737,  738,  739,  740,  741,  742,  743,  744,  745,  746,  747,  748,  753,  754,  755,  756
  757,  758,  759,  760,  761,  762,  763,  764,  765,  766,  767,  768,  769,  770,  771,  772
  773,  774,  775,  776,  777,  778,  779,  780,  781,  782,  783,  784,  785,  786,  787,  788
  789,  790,  791,  792,  793,  794,  795,  796,  797,  798,  799,  800,  801,  802,  803,  804
  805,  806,  807,  808,  809,  810,  811,  812,  813,  814,  815,  816,  817,  818,  819,  820
  821,  822,  823,  824,  825,  826,  827,  828,  829,  830,  831,  832,  833,  834,  835,  836
  837,  838,  839,  840,  841,  842,  843,  844,  845,  846,  847,  848,  849,  850,  851,  852
  853,  854,  855,  856,  857,  858,  859,  860,  861,  862,  863,  864,  865,  866,  867,  868
  869,  870,  871,  872,  873,  874,  875,  876,  877,  878,  879,  880,  881,  882,  883,  884
  891,  892,  895,  896, 3565, 3566, 3567, 3568, 3569, 3570, 3571, 3572, 3573, 3574, 3575, 3576
 3577, 3578, 3579, 3580, 3581, 3582, 3583, 3584, 3585, 3586, 3587, 3588, 3589, 3590, 3591, 3592
 3593, 3594, 3595, 3596, 3597, 3598, 3599, 3600, 3601, 3602, 3603, 3604, 3605, 3606, 3607, 3608
** ... 22 like lines cut
*Elset, elset=SET_ELECTRODE_OUTLET_COATING, instance=COATING-1
  586,  587,  588,  589,  590,  591,  592,  593,  594,  595,  596,  597,  598,  599,  600,  601
  602,  603,  604,  605,  606,  607,  608,  609,  610,  611,  612,  613,  614,  615,  616,  617
  618,  619,  620,  621,  622,  623,  624,  625,  626,  627,  628,  629,  630,  631,  632,  633
  634,  635,  636,  637,  638,  639,  640,  641,  642,  643,  644,  645,  646,  647,  648,  649
  650,  651,  652,  653,  654,  655,  656,  657,  658,  659,  660,  661,  662,  663,  664,  665
  666,  667,  668,  669,  670,  671,  672,  673,  674,  675,  676,  677,  678,  679,  680,  681
  682,  683,  684,  685,  686,  687,  688,  689,  690,  691,  692,  693,  694,  695,  696,  697
  698,  699,  700,  701,  702,  703,  704,  705,  706,  707,  708,  709,  710,  711,  712,  713
  714,  715,  716,  717,  718,  719,  720,  721,  722,  723,  724,  725,  726,  727,  728,  729
  730,  731,  732,  733,  734,  735,  736,  737,  738,  739,  740,  741,  742,  743,  744,  745
  746,  747,  748,  749,  750,  751,  752,  753,  754,  755,  756,  757,  758,  759,  760,  761
  762,  763,  764,  765,  766,  767,  768,  769,  770,  771,  772,  773,  774,  775,  776,  777
  778,  779,  780,  976,  977,  978,  979,  980,  981,  982,  983,  984,  985,  986,  987,  988
  989,  990,  991,  992,  993,  994,  995,  996,  997,  998,  999, 1000, 1001, 1002, 1003, 1004
 1005, 1006, 1007, 1008, 1009, 1010, 1011, 1012, 1013, 1014, 1015, 1016, 1017, 1018, 1019, 1020
 1021, 1022, 1023, 1024, 1025, 1026, 1027, 1028, 1029, 1030, 1031, 1032, 1033, 1034, 1035, 1036
 1037, 1038, 1039, 1040, 1041, 1042, 1043, 1044, 1045, 1046, 1047, 1048, 1049, 1050, 1051, 1052
 1053, 1054, 1055, 1056, 1057, 1058, 1059, 1060, 1061, 1062, 1063, 1064, 1065, 1066, 1067, 1068
 1069, 1070, 1071, 1072, 1073, 1074, 1075, 1076, 1077, 1078, 1079, 1080, 1081, 1082, 1083, 1084
 1085, 1086, 1087, 1088, 1089, 1090, 1091, 1092, 1093, 1094, 1095, 1096, 1097, 1098, 1099, 1100
** ... 17 like lines cut
*Nset, nset=SET_ELECTRODE_OUTLET_COLLECTOR, instance=COLLECTOR-1
   3,   4,   6,   7,  49,  50,  51,  52,  53,  54,  55,  56,  57,  58,  59,  60
  61,  62,  63,  64,  65,  66,  67,  68,  69,  70,  71,  72,  73,  74,  75,  76
  77,  78,  79,  80,  81,  82,  83,  84,  85,  86,  87,  88,  89,  90,  91,  92
  93,  94,  95,  96,  97,  98,  99, 100, 101, 102, 103, 104, 105, 106, 107, 108
 109, 110, 111, 112, 113, 114, 115, 183, 184, 185, 186, 187, 188, 189, 190, 191
 192, 193, 194, 195, 196, 197, 198, 199, 200, 201, 202, 203, 204, 205, 206, 207
 208, 209, 210, 211, 212, 213, 214, 215, 216, 217, 218, 219, 220, 221, 222, 223
 224, 225, 226, 227, 228, 229, 230, 231, 232, 233, 234, 235, 236, 237, 238, 239
 240, 241, 242, 243, 244, 245, 246, 247, 248, 249
*Elset, elset=SET_ELECTRODE_OUTLET_COLLECTOR, instance=COLLECTOR-1, generate
   2,  136,    2
*Nset, nset=SET_SYM_X0, instance=COLLECTOR-1
    5,    6,    7,    8,   13,   14,   15,   16,   21,   22,   23,   24,   29,   30,   31,   32
   37,   38,   39,   40,   41,   42,   47,   48, 1389, 1390
*Nset, nset=SET_SYM_X0, instance=COATING-1
    2,    3,    6,    7,   11,   12,   15,   16,   18,   19,   23,   24,   26,   27,   30,   31
   32,   35,   38,   40,   41,   44,   45,   46,   51,   52,   53,   56,   57,   60,   62,   64
   65,   67,   69,   70,   74,   75,   77,   79,   82,   84,   85,   87,  153,  154,  285,  286
  419,  420,  551,  552,  681,  682,  751,  752,  819,  820,  885,  887,  893,  894,  895,  896
  897,  898,  965,  966, 1099, 1100, 1101, 1102, 1233, 1234, 1367, 1368, 1435, 1436, 1567, 1568
 1569, 1570, 1767, 1768, 1835, 1836, 1837, 1838, 1971, 1972, 2103, 2104, 2107, 2108, 2237, 2238
 2305, 2306, 2373, 2374, 2505, 2506, 2573, 2574, 2641, 2642, 2839, 2840, 2907, 2908, 2909, 2910
 2979, 2980, 2981, 2983, 2984, 2985, 3695, 3696, 4083, 4084, 4087, 4088, 7289, 7290, 7549, 7550
 7617, 7618
*Elset, elset=SET_SYM_X0, instance=COLLECTOR-1
 135, 136, 204, 272, 340, 341, 476, 477, 612, 613, 681, 682
*Elset, elset=SET_SYM_X0, instance=COATING-1
   65,  130,  195,  388,  389,  390,  455,  520,  585,  650,  715,  780,  973,  974,  975, 1168
 1169, 1170, 1555, 1556, 1557, 1558, 1559, 1560, 1625, 1690, 1755, 1948, 1949, 1950, 2015, 2080
 2145, 2146, 2147, 2148, 2341, 2406, 2471, 2600, 2665, 2730, 2731, 2796, 2861, 2926, 2927, 2928
 3121, 3186, 3251, 3508, 3509, 3510, 3575, 3640, 3705, 3706, 3771, 3836, 3901, 3966, 4031, 4288
 4289, 4290, 4291, 4356, 4421, 4550, 4615, 4680, 4681, 4682, 4683, 4940, 5005, 5070, 5135, 5200
 5265, 5266, 5267, 5268, 5525, 5590, 5655, 5656, 5721, 5786, 5851, 5916, 5981, 6046, 6111, 6176
 6241, 6306, 6371, 6500, 6565, 6630, 6631, 6632, 6633, 6634, 6635, 6636
*Nset, nset=SET_SYM_X0_COATING, instance=COATING-1
    2,    3,    6,    7,   11,   12,   15,   16,   18,   19,   23,   24,   26,   27,   30,   31
   32,   35,   38,   40,   41,   44,   45,   46,   51,   52,   53,   56,   57,   60,   62,   64
   65,   67,   69,   70,   74,   75,   77,   79,   82,   84,   85,   87,  153,  154,  285,  286
  419,  420,  551,  552,  681,  682,  751,  752,  819,  820,  885,  887,  893,  894,  895,  896
  897,  898,  965,  966, 1099, 1100, 1101, 1102, 1233, 1234, 1367, 1368, 1435, 1436, 1567, 1568
 1569, 1570, 1767, 1768, 1835, 1836, 1837, 1838, 1971, 1972, 2103, 2104, 2107, 2108, 2237, 2238
 2305, 2306, 2373, 2374, 2505, 2506, 2573, 2574, 2641, 2642, 2839, 2840, 2907, 2908, 2909, 2910
 2979, 2980, 2981, 2983, 2984, 2985, 3695, 3696, 4083, 4084, 4087, 4088, 7289, 7290, 7549, 7550
 7617, 7618
*Elset, elset=SET_SYM_X0_COATING, instance=COATING-1
   65,  130,  195,  388,  389,  390,  455,  520,  585,  650,  715,  780,  973,  974,  975, 1168
 1169, 1170, 1555, 1556, 1557, 1558, 1559, 1560, 1625, 1690, 1755, 1948, 1949, 1950, 2015, 2080
 2145, 2146, 2147, 2148, 2341, 2406, 2471, 2600, 2665, 2730, 2731, 2796, 2861, 2926, 2927, 2928
 3121, 3186, 3251, 3508, 3509, 3510, 3575, 3640, 3705, 3706, 3771, 3836, 3901, 3966, 4031, 4288
 4289, 4290, 4291, 4356, 4421, 4550, 4615, 4680, 4681, 4682, 4683, 4940, 5005, 5070, 5135, 5200
 5265, 5266, 5267, 5268, 5525, 5590, 5655, 5656, 5721, 5786, 5851, 5916, 5981, 6046, 6111, 6176
 6241, 6306, 6371, 6500, 6565, 6630, 6631, 6632, 6633, 6634, 6635, 6636
*Nset, nset=SET_SYM_X0_COLLECTOR, instance=COLLECTOR-1
    5,    6,    7,    8,   13,   14,   15,   16,   21,   22,   23,   24,   29,   30,   31,   32
   37,   38,   39,   40,   41,   42,   47,   48, 1389, 1390
*Elset, elset=SET_SYM_X0_COLLECTOR, instance=COLLECTOR-1
 135, 136, 204, 272, 340, 341, 476, 477, 612, 613, 681, 682
*Nset, nset=SET_SYM_Y0, instance=COLLECTOR-1
    1,    4,    7,    8,   10,   11,   13,   14,   18,   19,   21,   22,   26,   27,   29,   30
   34,   35,   37,   38,   42,   44,   46,   48,   49,   50,   51,   52,   53,   54,   55,   56
   57,   58,   59,   60,   61,   62,   63,   64,   65,   66,   67,   68,   69,   70,   71,   72
   73,   74,   75,   76,   77,   78,   79,   80,   81,   82,   83,   84,   85,   86,   87,   88
   89,   90,   91,   92,   93,   94,   95,   96,   97,   98,   99,  100,  101,  102,  103,  104
  105,  106,  107,  108,  109,  110,  111,  112,  113,  114,  115,  116,  117,  118,  119,  120
  121,  122,  123,  124,  125,  126,  127,  128,  129,  130,  131,  132,  133,  134,  135,  136
  137,  138,  139,  140,  141,  142,  143,  144,  145,  146,  147,  148,  149,  150,  151,  152
  153,  154,  155,  156,  157,  158,  159,  160,  161,  162,  163,  164,  165,  166,  167,  168
  169,  170,  171,  172,  173,  174,  175,  176,  177,  178,  179,  180,  181,  182,  451,  452
  453,  454,  455,  456,  457,  458,  459,  460,  461,  462,  463,  464,  465,  466,  467,  468
  469,  470,  471,  472,  473,  474,  475,  476,  477,  478,  479,  480,  481,  482,  483,  484
  485,  486,  487,  488,  489,  490,  491,  492,  493,  494,  495,  496,  497,  498,  499,  500
  501,  502,  503,  504,  505,  506,  507,  508,  509,  510,  511,  512,  513,  514,  515,  516
  517,  518,  519,  520,  521,  522,  523,  524,  525,  526,  527,  528,  529,  530,  531,  532
  533,  534,  535,  536,  537,  538,  539,  540,  541,  542,  543,  544,  545,  546,  547,  548
  549,  550,  551,  552,  553,  554,  555,  556,  557,  558,  559,  560,  561,  562,  563,  564
  565,  566,  567,  568,  569,  570,  571,  572,  573,  574,  575,  576,  577,  578,  579,  580
  581,  582,  583,  584,  719,  720,  721,  722,  723,  724,  725,  726,  727,  728,  729,  730
  731,  732,  733,  734,  735,  736,  737,  738,  739,  740,  741,  742,  743,  744,  745,  746
** ... 37 like lines cut
*Elset, elset=SET_SYM_Y0, instance=COLLECTOR-1, generate
   1,  816,    1
*Elset, elset=_S_COATING_TOP_S4, internal, instance=COATING-1
  198,  201,  204,  207,  210,  213,  216,  219,  222,  225,  228,  231,  234,  237,  240,  243
  246,  249,  252,  255,  258,  261,  264,  267,  270,  273,  276,  279,  282,  285,  288,  291
  294,  297,  300,  303,  306,  309,  312,  315,  318,  321,  324,  327,  330,  333,  336,  339
  342,  345,  348,  351,  354,  357,  360,  363,  366,  369,  372,  375,  378,  381,  384,  387
  390,  783,  786,  789,  792,  795,  798,  801,  804,  807,  810,  813,  816,  819,  822,  825
  828,  831,  834,  837,  840,  843,  846,  849,  852,  855,  858,  861,  864,  867,  870,  873
  876,  879,  882,  885,  888,  891,  894,  897,  900,  903,  906,  909,  912,  915,  918,  921
  924,  927,  930,  933,  936,  939,  942,  945,  948,  951,  954,  957,  960,  963,  966,  969
  972,  975,  978,  981,  984,  987,  990,  993,  996,  999, 1002, 1005, 1008, 1011, 1014, 1017
 1020, 1023, 1026, 1029, 1032, 1035, 1038, 1041, 1044, 1047, 1050, 1053, 1056, 1059, 1062, 1065
 1068, 1071, 1074, 1077, 1080, 1083, 1086, 1089, 1092, 1095, 1098, 1101, 1104, 1107, 1110, 1113
 1116, 1119, 1122, 1125, 1128, 1131, 1134, 1137, 1140, 1143, 1146, 1149, 1152, 1155, 1158, 1161
 1164, 1167, 1170, 1758, 1761, 1764, 1767, 1770, 1773, 1776, 1779, 1782, 1785, 1788, 1791, 1794
 1797, 1800, 1803, 1806, 1809, 1812, 1815, 1818, 1821, 1824, 1827, 1830, 1833, 1836, 1839, 1842
 1845, 1848, 1851, 1854, 1857, 1860, 1863, 1866, 1869, 1872, 1875, 1878, 1881, 1884, 1887, 1890
 1893, 1896, 1899, 1902, 1905, 1908, 1911, 1914, 1917, 1920, 1923, 1926, 1929, 1932, 1935, 1938
 1941, 1944, 1947, 1950, 6633, 6636, 6639, 6642, 6645, 6648, 6651, 6654, 6657, 6660, 6663, 6666
 6669, 6672, 6675, 6678, 6681, 6684, 6687, 6690, 6693, 6696, 6699, 6702, 6705, 6708, 6711, 6714
 6717, 6720, 6723, 6726, 6729, 6732, 6735, 6738, 6741, 6744, 6747, 6750, 6753, 6756, 6759, 6762
 6765, 6768, 6771, 6774, 6777, 6780, 6783, 6786, 6789, 6792, 6795, 6798, 6801, 6804, 6807, 6810
** ... 5 like lines cut
*Elset, elset=_S_COATING_TOP_S5, internal, instance=COATING-1
 2861, 2862, 2863, 2864, 2865, 2866, 2867, 2868, 2869, 2870, 2871, 2872, 2873, 2874, 2875, 2876
 2877, 2878, 2879, 2880, 2881, 2882, 2883, 2884, 2885, 2886, 2887, 2888, 2889, 2890, 2891, 2892
 2893, 2894, 2895, 2896, 2897, 2898, 2899, 2900, 2901, 2902, 2903, 2904, 2905, 2906, 2907, 2908
 2909, 2910, 2911, 2912, 2913, 2914, 2915, 2916, 2917, 2918, 2919, 2920, 2921, 2922, 2923, 2924
 2925, 3251, 3252, 3253, 3254, 3255, 3256, 3257, 3258, 3259, 3260, 3261, 3262, 3263, 3264, 3265
 3266, 3267, 3268, 3269, 3270, 3271, 3272, 3273, 3274, 3275, 3276, 3277, 3278, 3279, 3280, 3281
 3282, 3283, 3284, 3285, 3286, 3287, 3288, 3289, 3290, 3291, 3292, 3293, 3294, 3295, 3296, 3297
 3298, 3299, 3300, 3301, 3302, 3303, 3304, 3305, 3306, 3307, 3308, 3309, 3310, 3311, 3312, 3313
 3314, 3315, 4031, 4032, 4033, 4034, 4035, 4036, 4037, 4038, 4039, 4040, 4041, 4042, 4043, 4044
 4045, 4046, 4047, 4048, 4049, 4050, 4051, 4052, 4053, 4054, 4055, 4056, 4057, 4058, 4059, 4060
 4061, 4062, 4063, 4064, 4065, 4066, 4067, 4068, 4069, 4070, 4071, 4072, 4073, 4074, 4075, 4076
 4077, 4078, 4079, 4080, 4081, 4082, 4083, 4084, 4085, 4086, 4087, 4088, 4089, 4090, 4091, 4092
 4093, 4094, 4095, 4421, 4422, 4423, 4424, 4425, 4426, 4427, 4428, 4429, 4430, 4431, 4432, 4433
 4434, 4435, 4436, 4437, 4438, 4439, 4440, 4441, 4442, 4443, 4444, 4445, 4446, 4447, 4448, 4449
 4450, 4451, 4452, 4453, 4454, 4455, 4456, 4457, 4458, 4459, 4460, 4461, 4462, 4463, 4464, 4465
 4466, 4467, 4468, 4469, 4470, 4471, 4472, 4473, 4474, 4475, 4476, 4477, 4478, 4479, 4480, 4481
 4482, 4483, 4484, 4485
*Elset, elset=_S_COATING_TOP_S6, internal, instance=COATING-1
 4681, 4684, 4687, 4690, 4693, 4696, 4699, 4702, 4705, 4708, 4711, 4714, 4717, 4720, 4723, 4726
 4729, 4732, 4735, 4738, 4741, 4744, 4747, 4750, 4753, 4756, 4759, 4762, 4765, 4768, 4771, 4774
 4777, 4780, 4783, 4786, 4789, 4792, 4795, 4798, 4801, 4804, 4807, 4810, 4813, 4816, 4819, 4822
 4825, 4828, 4831, 4834, 4837, 4840, 4843, 4846, 4849, 4852, 4855, 4858, 4861, 4864, 4867, 4870
 4873, 5266, 5269, 5272, 5275, 5278, 5281, 5284, 5287, 5290, 5293, 5296, 5299, 5302, 5305, 5308
 5311, 5314, 5317, 5320, 5323, 5326, 5329, 5332, 5335, 5338, 5341, 5344, 5347, 5350, 5353, 5356
 5359, 5362, 5365, 5368, 5371, 5374, 5377, 5380, 5383, 5386, 5389, 5392, 5395, 5398, 5401, 5404
 5407, 5410, 5413, 5416, 5419, 5422, 5425, 5428, 5431, 5434, 5437, 5440, 5443, 5446, 5449, 5452
 5455, 5458
*Surface, type=ELEMENT, name=S_COATING_TOP
_S_COATING_TOP_S4, S4
_S_COATING_TOP_S5, S5
_S_COATING_TOP_S6, S6
*Elset, elset=_S_ROLL_SPOS, internal, instance=ROLL-1, generate
   1,  945,    1
*Surface, type=ELEMENT, name=S_ROLL
_S_ROLL_SPOS, SPOS
*End Assembly
** 
** MATERIALS
** 
*Material, name=COATING_DPC
*Cap Plasticity
65.,   4.,  0.8, 0.01
*Cap Hardening
 55.,    0.
 58.,  0.05
 62.,   0.1
 72.,  0.15
 95.,   0.2
140.,  0.23
220.,  0.26
370.,  0.29
740., 0.325
*Density
 2.55e-09,
*Elastic
6500., 0.01
*Material, name=COLLECTOR_AL
*Density
 2.7e-09,
*Elastic
72000., 0.33
*Material, name=ROLL_STEEL_DISPLAY
*Density
 7.93e-09,
*Elastic
193000., 0.2
