*Heading
 2D DPC flat compression unload residual thickness check
** Job name: FlatUnload_2D_DPC_E50Nu015 Model name: FlatUnload_2D_DPC_E50Nu015
** Generated by: Abaqus/CAE 2025
*Preprint, echo=NO, model=NO, history=NO, contact=NO
**
** SECTION CONTROLS
*SECTION CONTROLS, NAME=FilmControls, HOURGLASS=ENHANCED, DISTORTION CONTROL=YES
** PARTS
**
*Part, name=ActiveLayer
*Node
      1,          -3.,           0.
      2,  -2.95000005,           0.
      3,   -2.9000001,           0.
      4,   -2.8499999,           0.
      5,  -2.79999995,           0.
      6,        -2.75,           0.
      7,  -2.70000005,           0.
      8,   -2.6500001,           0.
      9,   -2.5999999,           0.
     10,  -2.54999995,           0.
     11,         -2.5,           0.
     12,  -2.45000005,           0.
     13,   -2.4000001,           0.
     14,   -2.3499999,           0.
     15,  -2.29999995,           0.
     16,        -2.25,           0.
     17,  -2.20000005,           0.
     18,   -2.1500001,           0.
     19,   -2.0999999,           0.
     20,  -2.04999995,           0.
** ... 3005 like lines cut
*Element, type=CPE4R
   1,    1,    2,  123,  122
   2,    2,    3,  124,  123
   3,    3,    4,  125,  124
   4,    4,    5,  126,  125
   5,    5,    6,  127,  126
   6,    6,    7,  128,  127
   7,    7,    8,  129,  128
   8,    8,    9,  130,  129
   9,    9,   10,  131,  130
  10,   10,   11,  132,  131
  11,   11,   12,  133,  132
  12,   12,   13,  134,  133
  13,   13,   14,  135,  134
  14,   14,   15,  136,  135
  15,   15,   16,  137,  136
  16,   16,   17,  138,  137
  17,   17,   18,  139,  138
  18,   18,   19,  140,  139
  19,   19,   20,  141,  140
  20,   20,   21,  142,  141
** ... 2860 like lines cut
*Nset, nset=_PickedSet2, internal, generate
    1,  3025,     1
*Elset, elset=_PickedSet2, internal, generate
    1,  2880,     1
** Section: Sec_ActiveLayer
*Solid Section, elset=_PickedSet2, material=ActiveLayer_DPC, controls=FilmControls
,
*End Part
**  
*Part, name=BottomRigidPlate
*End Part
**  
*Part, name=TopRigidPlate
*End Part
**  
**
** ASSEMBLY
**
*Assembly, name=Assembly
**  
*Instance, name=ActiveLayer-1, part=ActiveLayer
*End Instance
**  
*Instance, name=TopPlate-1, part=TopRigidPlate
          0.,         0.15,           0.
*Node
      1,           0.,           0.,           0.
*Nset, nset=TopPlate-1-RefPt_, internal
1, 
*Surface, type=SEGMENTS, name=PlateSurface
START,          3.2,           0.
 LINE,         -3.2,           0.
*Rigid Body, ref node=TopPlate-1-RefPt_, analytical surface=PlateSurface
*End Instance
**  
*Instance, name=BottomPlate-1, part=BottomRigidPlate
*Node
      1,           0.,           0.,           0.
*Nset, nset=BottomPlate-1-RefPt_, internal
1, 
*Surface, type=SEGMENTS, name=PlateSurface
START,         -3.2,           0.
 LINE,          3.2,           0.
*Rigid Body, ref node=BottomPlate-1-RefPt_, analytical surface=PlateSurface
*End Instance
**  
*Nset, nset=Bottom_Left_Node, instance=ActiveLayer-1
 1,
*Nset, nset=Bottom_Nodes, instance=ActiveLayer-1, generate
   1,  121,    1
*Nset, nset=RP_BottomPlate, instance=BottomPlate-1
 1,
*Nset, nset=RP_TopPlate, instance=TopPlate-1
 1,
*Nset, nset=Sheet_All, instance=ActiveLayer-1, generate
    1,  3025,     1
*Elset, elset=Sheet_All, instance=ActiveLayer-1, generate
    1,  2880,     1
*Nset, nset=Top_Nodes, instance=ActiveLayer-1, generate
 2905,  3025,     1
*Elset, elset=_Sheet_Bottom_S1, internal, instance=ActiveLayer-1, generate
   1,  120,    1
*Surface, type=ELEMENT, name=Sheet_Bottom
_Sheet_Bottom_S1, S1
*Elset, elset=_Sheet_Top_S3, internal, instance=ActiveLayer-1, generate
 2761,  2880,     1
*Surface, type=ELEMENT, name=Sheet_Top
_Sheet_Top_S3, S3
*End Assembly
*Amplitude, name=Amp_Top_U2_Total, time=TOTAL TIME, definition=SMOOTH STEP
             0.,              0.,             0.2,          -0.015,            0.25,          -0.015,            0.45,           0.002
           0.55,           0.002
** 
** MATERIALS
** 
*Material, name=ActiveLayer_DPC
*Cap Plasticity
4.,  65.,  0.8,  60., 0.02,   1.
*Cap Hardening
 60.,   0.
 62., 0.05
 66.,  0.1
 72., 0.15
 80., 0.18
 90.,  0.2
110., 0.22
140., 0.24
190., 0.26
270., 0.28
390.,  0.3
480., 0.31
600., 0.32
740., 0.33
*Density
 2.55e-09,
*Elastic
50., 0.15
** 
** INTERACTION PROPERTIES
** 
*Surface Interaction, name=Plate_Film_mu0p1
*Friction
 0.1,
*Surface Behavior, pressure-overclosure=HARD
** 
** BOUNDARY CONDITIONS
** 
** Name: BC_BottomPlate_Fixed Type: 位移/转角
*Boundary
RP_BottomPlate, 1, 1
RP_BottomPlate, 2, 2
RP_BottomPlate, 6, 6
** Name: BC_Sheet_X_Anchor Type: 位移/转角
*Boundary
Bottom_Left_Node, 1, 1
** Name: BC_TopPlate_XR_Fixed Type: 位移/转角
*Boundary
RP_TopPlate, 1, 1
RP_TopPlate, 6, 6
** ----------------------------------------------------------------
** 
** STEP: Compress_Down
** 
*Step, name=Compress_Down, nlgeom=YES
*Dynamic, Explicit
, 0.2
*Bulk Viscosity
0.12, 1.2
** Mass Scaling: Semi-Automatic
**               Whole Model
*Fixed Mass Scaling, dt=1e-06, type=below min
** 
** BOUNDARY CONDITIONS
** 
** Name: BC_TopPlate_U2_History Type: 位移/转角
*Boundary, amplitude=Amp_Top_U2_Total
RP_TopPlate, 2, 2, 1.
** 
** INTERACTIONS
** 
** Interaction: BottomPlate_to_Film
*Contact Pair, op=ADD, interaction=Plate_Film_mu0p1, mechanical constraint=KINEMATIC, cpset=BottomPlate_to_Film
BottomPlate-1.PlateSurface, Sheet_Bottom
** Interaction: TopPlate_to_Film
*Contact Pair, op=ADD, interaction=Plate_Film_mu0p1, mechanical constraint=KINEMATIC, cpset=TopPlate_to_Film
TopPlate-1.PlateSurface, Sheet_Top
** 
** OUTPUT REQUESTS
** 
*Restart, write, number interval=1, time marks=NO
** 
** FIELD OUTPUT: F_Sheet
** 
*Output, field, number interval=160
*Node Output, nset=Sheet_All
A, U, V
*Element Output, elset=Sheet_All, directions=YES
LE, PE, PEEQ, S
*Contact Output, variable=PRESELECT
** 
** HISTORY OUTPUT: H-Output-1
** 
*Output, history, variable=PRESELECT
** 
** HISTORY OUTPUT: H_Energy
** 
*Output, history, time interval=0.0004
*Energy Output
ALLAE, ALLIE, ALLKE, ALLMW, ALLPD, ALLSE, ALLWK
** 
** HISTORY OUTPUT: H_BottomPlate_RP
** 
*Node Output, nset=RP_BottomPlate
RF1, RF2, U2, V2
** 
** HISTORY OUTPUT: H_TopPlate_RP
** 
*Node Output, nset=RP_TopPlate
RF1, RF2, U2, V2
*End Step
** ----------------------------------------------------------------
** 
** STEP: Hold_135um
** 
*Step, name=Hold_135um, nlgeom=YES
*Dynamic, Explicit
, 0.05
*Bulk Viscosity
0.12, 1.2
** 
** OUTPUT REQUESTS
** 
*Restart, write, number interval=1, time marks=NO
** 
** FIELD OUTPUT: F_Sheet
** 
*Output, field, number interval=160
*Node Output, nset=Sheet_All
A, U, V
*Element Output, elset=Sheet_All, directions=YES
LE, PE, PEEQ, S
*Contact Output, variable=PRESELECT
** 
** HISTORY OUTPUT: H-Output-1
** 
*Output, history, variable=PRESELECT
** 
** HISTORY OUTPUT: H_Energy
** 
*Output, history, time interval=0.0001
*Energy Output
ALLAE, ALLIE, ALLKE, ALLMW, ALLPD, ALLSE, ALLWK
** 
** HISTORY OUTPUT: H_BottomPlate_RP
** 
*Node Output, nset=RP_BottomPlate
RF1, RF2, U2, V2
** 
** HISTORY OUTPUT: H_TopPlate_RP
** 
*Node Output, nset=RP_TopPlate
RF1, RF2, U2, V2
*End Step
** ----------------------------------------------------------------
** 
** STEP: Unload
** 
*Step, name=Unload, nlgeom=YES
*Dynamic, Explicit
, 0.2
*Bulk Viscosity
0.12, 1.2
** 
** OUTPUT REQUESTS
** 
*Restart, write, number interval=1, time marks=NO
** 
** FIELD OUTPUT: F_Sheet
** 
*Output, field, number interval=160
*Node Output, nset=Sheet_All
A, U, V
*Element Output, elset=Sheet_All, directions=YES
LE, PE, PEEQ, S
*Contact Output, variable=PRESELECT
** 
** HISTORY OUTPUT: H-Output-1
** 
*Output, history, variable=PRESELECT
** 
** HISTORY OUTPUT: H_Energy
** 
*Output, history, time interval=0.0004
*Energy Output
ALLAE, ALLIE, ALLKE, ALLMW, ALLPD, ALLSE, ALLWK
** 
** HISTORY OUTPUT: H_BottomPlate_RP
** 
*Node Output, nset=RP_BottomPlate
RF1, RF2, U2, V2
** 
** HISTORY OUTPUT: H_TopPlate_RP
** 
*Node Output, nset=RP_TopPlate
RF1, RF2, U2, V2
*End Step
** ----------------------------------------------------------------
** 
** STEP: Free_Settle
** 
*Step, name=Free_Settle, nlgeom=YES
*Dynamic, Explicit
, 0.1
*Bulk Viscosity
0.12, 1.2
** 
** OUTPUT REQUESTS
** 
*Restart, write, number interval=1, time marks=NO
** 
** FIELD OUTPUT: F_Sheet
** 
*Output, field, number interval=160
*Node Output, nset=Sheet_All
A, U, V
*Element Output, elset=Sheet_All, directions=YES
LE, PE, PEEQ, S
*Contact Output, variable=PRESELECT
** 
** HISTORY OUTPUT: H-Output-1
** 
*Output, history, variable=PRESELECT
** 
** HISTORY OUTPUT: H_Energy
** 
*Output, history, time interval=0.0002
*Energy Output
ALLAE, ALLIE, ALLKE, ALLMW, ALLPD, ALLSE, ALLWK
** 
** HISTORY OUTPUT: H_BottomPlate_RP
** 
*Node Output, nset=RP_BottomPlate
RF1, RF2, U2, V2
** 
** HISTORY OUTPUT: H_TopPlate_RP
** 
*Node Output, nset=RP_TopPlate
RF1, RF2, U2, V2
*End Step
