*Heading
 2D quick plane-strain DPC roll pressing thickness check
** Job name: RollPress_2D_DPC_RollFit_E6500_S00008B5 Model name: RollPress_2D_DPC_RollFit_E6500_S00008B5
** Generated by: Abaqus/CAE 2025
*Preprint, echo=NO, model=NO, history=NO, contact=NO
**
** SECTION CONTROLS
*SECTION CONTROLS, NAME=FilmControls, HOURGLASS=ENHANCED, DISTORTION CONTROL=YES
** PARTS
**
*Part, name=ActiveLayer
*Node
      1,           2.,           0.
      2,           2.,  0.150000006
      3,           1.,  0.150000006
      4,           1.,           0.
      5,           0.,  0.150000006
      6,           0.,           0.
      7,          -1.,  0.150000006
      8,          -1.,           0.
      9,          -2.,  0.150000006
     10,          -2.,           0.
     11,          -3.,  0.150000006
     12,          -3.,           0.
     13,           3.,           0.
     14,           3.,  0.150000006
     15,           2., 0.00625000009
     16,           2., 0.0125000002
     17,           2., 0.0187500007
     18,           2., 0.0250000004
     19,           2.,      0.03125
     20,           2., 0.0375000015
** ... 5005 like lines cut
*Element, type=CPE4R
  1,    1,   15,  564,  138
  2,   15,   16,  565,  564
  3,   16,   17,  566,  565
  4,   17,   18,  567,  566
  5,   18,   19,  568,  567
  6,   19,   20,  569,  568
  7,   20,   21,  570,  569
  8,   21,   22,  571,  570
  9,   22,   23,  572,  571
 10,   23,   24,  573,  572
 11,   24,   25,  574,  573
 12,   25,   26,  575,  574
 13,   26,   27,  576,  575
 14,   27,   28,  577,  576
 15,   28,   29,  578,  577
 16,   29,   30,  579,  578
 17,   30,   31,  580,  579
 18,   31,   32,  581,  580
 19,   32,   33,  582,  581
 20,   33,   34,  583,  582
** ... 4780 like lines cut
*Nset, nset=_PickedSet12, internal, generate
    1,  5025,     1
*Elset, elset=_PickedSet12, internal, generate
    1,  4800,     1
*Elset, elset=_Front_S3, internal, generate
 4777,  4800,     1
*Surface, type=ELEMENT, name=Front
_Front_S3, S3
*Elset, elset=_Back_S3, internal, generate
 4297,  4320,     1
*Surface, type=ELEMENT, name=Back
_Back_S3, S3
** Section: Sec_ActiveLayer
*Solid Section, elset=_PickedSet12, material=ActiveLayer_DPC, controls=FilmControls
,
*End Part
**  
*Part, name=LowerRollerRigid
*End Part
**  
*Part, name=UpperRollerRigid
*End Part
**  
**
** ASSEMBLY
**
*Assembly, name=Assembly
**  
*Instance, name=ActiveLayer-1, part=ActiveLayer
*End Instance
**  
*Instance, name=UpperRoller-1, part=UpperRollerRigid
          0.,       50.155,           0.
*Node
      1,           0.,           0.,           0.
*Nset, nset=UpperRoller-1-RefPt_, internal
1, 
*Surface, type=SEGMENTS, name=RollSurface
START,           4., -49.8397431775084
 LINE, 3.93333333333333, -49.8450487901144
 LINE, 3.86666666666667, -49.850264682235
 LINE,          3.8, -49.85539088203
 LINE, 3.73333333333333, -49.8604274171634
 LINE, 3.66666666666667, -49.8653743148044
 LINE,          3.6, -49.8702316016278
 LINE, 3.53333333333333, -49.8749993038151
 LINE, 3.46666666666667, -49.8796774470548
 LINE,          3.4, -49.8842660565433
 LINE, 3.33333333333333, -49.8887651569859
 LINE, 3.26666666666667, -49.8931747725968
 LINE,          3.2, -49.8974949271003
 LINE, 3.13333333333333, -49.9017256437312
 LINE, 3.06666666666667, -49.9058669452356
 LINE,           3., -49.9099188538711
 LINE, 2.93333333333333, -49.9138813914081
 LINE, 2.86666666666667, -49.9177545791297
 LINE,          2.8, -49.9215384378326
 LINE, 2.73333333333333, -49.9252329878278
 LINE, 2.66666666666667, -49.9288382489407
** ... 100 like lines cut
*Rigid Body, ref node=UpperRoller-1-RefPt_, analytical surface=RollSurface
*End Instance
**  
*Instance, name=LowerRoller-1, part=LowerRollerRigid
          0.,      -50.005,           0.
*Node
      1,           0.,           0.,           0.
*Nset, nset=LowerRoller-1-RefPt_, internal
1, 
*Surface, type=SEGMENTS, name=RollSurface
START,          -4., 49.8397431775084
 LINE, -3.93333333333333, 49.8450487901144
 LINE, -3.86666666666667, 49.850264682235
 LINE,         -3.8, 49.85539088203
 LINE, -3.73333333333333, 49.8604274171634
 LINE, -3.66666666666667, 49.8653743148044
 LINE,         -3.6, 49.8702316016278
 LINE, -3.53333333333333, 49.8749993038151
 LINE, -3.46666666666667, 49.8796774470548
 LINE,         -3.4, 49.8842660565433
 LINE, -3.33333333333333, 49.8887651569859
 LINE, -3.26666666666667, 49.8931747725968
 LINE,         -3.2, 49.8974949271003
 LINE, -3.13333333333333, 49.9017256437312
 LINE, -3.06666666666667, 49.9058669452356
 LINE,          -3., 49.9099188538711
 LINE, -2.93333333333333, 49.9138813914081
 LINE, -2.86666666666667, 49.9177545791297
 LINE,         -2.8, 49.9215384378326
 LINE, -2.73333333333333, 49.9252329878278
 LINE, -2.66666666666667, 49.9288382489407
** ... 100 like lines cut
*Rigid Body, ref node=LowerRoller-1-RefPt_, analytical surface=RollSurface
*End Instance
**  
*Nset, nset=Bottom_Nodes, instance=ActiveLayer-1
   1,   4,   6,   8,  10,  12,  13, 100, 101, 102, 103, 104, 105, 106, 107, 108
 109, 110, 111, 112, 113, 114, 115, 116, 117, 118, 119, 120, 121, 122, 123, 124
 125, 126, 127, 128, 129, 130, 131, 132, 133, 134, 135, 136, 137, 138, 201, 202
 203, 204, 205, 206, 207, 208, 209, 210, 211, 212, 213, 214, 215, 216, 217, 218
 219, 220, 221, 222, 223, 224, 225, 226, 227, 228, 229, 230, 231, 232, 233, 234
 235, 236, 237, 238, 239, 302, 303, 304, 305, 306, 307, 308, 309, 310, 311, 312
 313, 314, 315, 316, 317, 318, 319, 320, 321, 322, 323, 324, 325, 326, 327, 328
 329, 330, 331, 332, 333, 334, 335, 336, 337, 338, 339, 340, 403, 404, 405, 406
 407, 408, 409, 410, 411, 412, 413, 414, 415, 416, 417, 418, 419, 420, 421, 422
 423, 424, 425, 426, 427, 428, 429, 430, 431, 432, 433, 434, 435, 436, 437, 438
 439, 440, 441, 484, 485, 486, 487, 488, 489, 490, 491, 492, 493, 494, 495, 496
 497, 498, 499, 500, 501, 502, 503, 504, 505, 506, 507, 508, 509, 510, 511, 512
 513, 514, 515, 516, 517, 518, 519, 520, 521
*Nset, nset=RP_LowerRoller, instance=LowerRoller-1
 1,
*Nset, nset=RP_UpperRoller, instance=UpperRoller-1
 1,
*Nset, nset=Sheet_All, instance=ActiveLayer-1, generate
    1,  5025,     1
*Elset, elset=Sheet_All, instance=ActiveLayer-1, generate
    1,  4800,     1
*Nset, nset=Sheet_Back_Nodes, instance=ActiveLayer-1
  11,  12, 461, 462, 463, 464, 465, 466, 467, 468, 469, 470, 471, 472, 473, 474
 475, 476, 477, 478, 479, 480, 481, 482, 483
*Nset, nset=Sheet_Front_Nodes, instance=ActiveLayer-1
  13,  14, 522, 523, 524, 525, 526, 527, 528, 529, 530, 531, 532, 533, 534, 535
 536, 537, 538, 539, 540, 541, 542, 543, 544
*Nset, nset=Top_Nodes, instance=ActiveLayer-1
   2,   3,   5,   7,   9,  11,  14,  38,  39,  40,  41,  42,  43,  44,  45,  46
  47,  48,  49,  50,  51,  52,  53,  54,  55,  56,  57,  58,  59,  60,  61,  62
  63,  64,  65,  66,  67,  68,  69,  70,  71,  72,  73,  74,  75,  76, 139, 140
 141, 142, 143, 144, 145, 146, 147, 148, 149, 150, 151, 152, 153, 154, 155, 156
 157, 158, 159, 160, 161, 162, 163, 164, 165, 166, 167, 168, 169, 170, 171, 172
 173, 174, 175, 176, 177, 240, 241, 242, 243, 244, 245, 246, 247, 248, 249, 250
 251, 252, 253, 254, 255, 256, 257, 258, 259, 260, 261, 262, 263, 264, 265, 266
 267, 268, 269, 270, 271, 272, 273, 274, 275, 276, 277, 278, 341, 342, 343, 344
 345, 346, 347, 348, 349, 350, 351, 352, 353, 354, 355, 356, 357, 358, 359, 360
 361, 362, 363, 364, 365, 366, 367, 368, 369, 370, 371, 372, 373, 374, 375, 376
 377, 378, 379, 442, 443, 444, 445, 446, 447, 448, 449, 450, 451, 452, 453, 454
 455, 456, 457, 458, 459, 460, 545, 546, 547, 548, 549, 550, 551, 552, 553, 554
 555, 556, 557, 558, 559, 560, 561, 562, 563
*Elset, elset=_Sheet_Back_S3, internal, instance=ActiveLayer-1, generate
 4297,  4320,     1
*Surface, type=ELEMENT, name=Sheet_Back
_Sheet_Back_S3, S3
*Elset, elset=_Sheet_Bottom_S4, internal, instance=ActiveLayer-1, generate
    1,  4297,    24
*Elset, elset=_Sheet_Bottom_S2, internal, instance=ActiveLayer-1, generate
 4344,  4800,    24
*Surface, type=ELEMENT, name=Sheet_Bottom
_Sheet_Bottom_S4, S4
_Sheet_Bottom_S2, S2
*Elset, elset=_Sheet_Front_S3, internal, instance=ActiveLayer-1, generate
 4777,  4800,     1
*Surface, type=ELEMENT, name=Sheet_Front
_Sheet_Front_S3, S3
*Elset, elset=_Sheet_Top_S2, internal, instance=ActiveLayer-1, generate
   24,  4320,    24
*Elset, elset=_Sheet_Top_S4, internal, instance=ActiveLayer-1, generate
 4321,  4777,    24
*Surface, type=ELEMENT, name=Sheet_Top
_Sheet_Top_S2, S2
_Sheet_Top_S4, S4
*End Assembly
*Amplitude, name=Amp_Clamp_Drop, time=TOTAL TIME, definition=SMOOTH STEP
             0.,              0.,             0.2,              1.,            0.64,              1.
*Amplitude, name=Amp_Rolling_Spin, definition=SMOOTH STEP
             0.,              0.,            0.05,              1.,            0.42,              1.
*Amplitude, name=Amp_Spin_Total, time=TOTAL TIME, definition=SMOOTH STEP
             0.,              0.,            0.05,              1.,            0.64,              1.
** 
** MATERIALS
** 
*Material, name=ActiveLayer_DPC
*Cap Plasticity
 0.0032,    5.,   0.8, 0.048,  0.02,    1.
*Cap Hardening
  0.048,   0.
 0.0496, 0.05
 0.0528,  0.1
 0.0576, 0.15
  0.064, 0.18
  0.072,  0.2
  0.088, 0.22
  0.112, 0.24
  0.152, 0.26
  0.216, 0.28
  0.312,  0.3
  0.384, 0.31
   0.48, 0.32
  0.592, 0.33
*Density
 2.55e-09,
*Elastic
6500., 0.01
** 
** INTERACTION PROPERTIES
** 
*Surface Interaction, name=Roller_Film_mu0p1
*Friction
 0.1,
*Surface Behavior, pressure-overclosure=HARD
** 
** BOUNDARY CONDITIONS
** 
** Name: BC_Back_Guide_Y Type: 位移/转角
*Boundary
Sheet_Back_Nodes, 2, 2
** Name: BC_Front_Guide_Y Type: 位移/转角
*Boundary
Sheet_Front_Nodes, 2, 2
** Name: BC_Lower_RP_Support Type: 位移/转角
*Boundary
RP_LowerRoller, 1, 1
RP_LowerRoller, 2, 2
** Name: BC_Upper_RP_LateralSupport Type: 位移/转角
*Boundary
RP_UpperRoller, 1, 1
** ----------------------------------------------------------------
** 
** STEP: Clamp_Down
** 
*Step, name=Clamp_Down, nlgeom=YES
*Dynamic, Explicit
, 0.2
*DIAGNOSTICS, CUTOFF RATIO=1000.
*Bulk Viscosity
0.12, 1.2
** Mass Scaling: Semi-Automatic
**               Whole Model
*Fixed Mass Scaling, dt=1e-06, type=below min
** 
** BOUNDARY CONDITIONS
** 
** Name: BC_Lower_Rotation Type: 速度/角速度
*Boundary, amplitude=Amp_Spin_Total, type=VELOCITY
RP_LowerRoller, 6, 6, -0.166667
** Name: BC_Sheet_Feed_X Type: 速度/角速度
*Boundary, amplitude=Amp_Spin_Total, type=VELOCITY
Sheet_All, 1, 1, 13.3333
** Name: BC_Upper_RP_Drop Type: 位移/转角
*Boundary, amplitude=Amp_Clamp_Drop
RP_UpperRoller, 2, 2, -0.025
** Name: BC_Upper_Rotation Type: 速度/角速度
*Boundary, amplitude=Amp_Spin_Total, type=VELOCITY
RP_UpperRoller, 6, 6, 0.266667
** 
** INTERACTIONS
** 
** Interaction: BottomRoller_to_Film
*Contact Pair, op=ADD, interaction=Roller_Film_mu0p1, mechanical constraint=KINEMATIC, cpset=BottomRoller_to_Film
LowerRoller-1.RollSurface, Sheet_Bottom
** Interaction: TopRoller_to_Film
*Contact Pair, op=ADD, interaction=Roller_Film_mu0p1, mechanical constraint=KINEMATIC, cpset=TopRoller_to_Film
UpperRoller-1.RollSurface, Sheet_Top
** 
** OUTPUT REQUESTS
** 
*Restart, write, number interval=1, time marks=NO
** 
** FIELD OUTPUT: F_Sheet
** 
*Output, field, number interval=120
*Node Output, nset=Sheet_All
A, U, V
*Element Output, elset=Sheet_All, directions=YES
LE, PE, PEEQ, S
*Contact Output, variable=PRESELECT
** 
** HISTORY OUTPUT: H-Output-1
** 
*Output, history, variable=PRESELECT
** 
** HISTORY OUTPUT: H_Energy
** 
*Output, history, time interval=0.0004
*Energy Output
ALLAE, ALLIE, ALLKE, ALLMW, ALLPD, ALLSE, ALLWK
** 
** HISTORY OUTPUT: H_LowerRoller_RP
** 
*Node Output, nset=RP_LowerRoller
RF1, RF2, RM3, U2, UR3, VR3
** 
** HISTORY OUTPUT: H_UpperRoller_RP
** 
*Node Output, nset=RP_UpperRoller
RF1, RF2, RM3, U2, UR3, VR3
*End Step
** ----------------------------------------------------------------
** 
** STEP: Hold_Clamp
** 
*Step, name=Hold_Clamp, nlgeom=YES
*Dynamic, Explicit
, 0.02
*DIAGNOSTICS, CUTOFF RATIO=1000.
*Bulk Viscosity
0.12, 1.2
** 
** OUTPUT REQUESTS
** 
*Restart, write, number interval=1, time marks=NO
** 
** FIELD OUTPUT: F_Sheet
** 
*Output, field, number interval=120
*Node Output, nset=Sheet_All
A, U, V
*Element Output, elset=Sheet_All, directions=YES
LE, PE, PEEQ, S
*Contact Output, variable=PRESELECT
** 
** HISTORY OUTPUT: H-Output-1
** 
*Output, history, variable=PRESELECT
** 
** HISTORY OUTPUT: H_Energy
** 
*Output, history, time interval=4e-05
*Energy Output
ALLAE, ALLIE, ALLKE, ALLMW, ALLPD, ALLSE, ALLWK
** 
** HISTORY OUTPUT: H_LowerRoller_RP
** 
*Node Output, nset=RP_LowerRoller
RF1, RF2, RM3, U2, UR3, VR3
** 
** HISTORY OUTPUT: H_UpperRoller_RP
** 
*Node Output, nset=RP_UpperRoller
RF1, RF2, RM3, U2, UR3, VR3
*End Step
** ----------------------------------------------------------------
** 
** STEP: Rolling
** 
*Step, name=Rolling, nlgeom=YES
*Dynamic, Explicit
, 0.42
*DIAGNOSTICS, CUTOFF RATIO=1000.
*Bulk Viscosity
0.12, 1.2
** 
** OUTPUT REQUESTS
** 
*Restart, write, number interval=1, time marks=NO
** 
** FIELD OUTPUT: F_Sheet
** 
*Output, field, number interval=120
*Node Output, nset=Sheet_All
A, U, V
*Element Output, elset=Sheet_All, directions=YES
LE, PE, PEEQ, S
*Contact Output, variable=PRESELECT
** 
** HISTORY OUTPUT: H-Output-1
** 
*Output, history, variable=PRESELECT
** 
** HISTORY OUTPUT: H_Energy
** 
*Output, history, time interval=0.00084
*Energy Output
ALLAE, ALLIE, ALLKE, ALLMW, ALLPD, ALLSE, ALLWK
** 
** HISTORY OUTPUT: H_LowerRoller_RP
** 
*Node Output, nset=RP_LowerRoller
RF1, RF2, RM3, U2, UR3, VR3
** 
** HISTORY OUTPUT: H_UpperRoller_RP
** 
*Node Output, nset=RP_UpperRoller
RF1, RF2, RM3, U2, UR3, VR3
*End Step
