*Heading
 Two-layer active-layer/current-collector compression validation
** Job name: Yang_Macro_TwoLayerElectrode_Compression Model name: Yang_Macro_TwoLayerElectrode_Compression
** Generated by: Abaqus/CAE 2025
*Preprint, echo=NO, model=NO, history=NO, contact=NO
**
** PARTS
**
*Part, name=ActiveLayer
*Node
      1,          0.5,  0.075000003,           1.
      2,          0.5, 0.0483999997,           1.
      3,          0.5, 0.0218000002,           1.
      4,          0.5, -0.00480000023,           1.
      5,          0.5, -0.0313999988,           1.
      6,          0.5, -0.0579999983,           1.
      7,          0.5,  0.075000003,  0.899999976
      8,          0.5, 0.0483999997,  0.899999976
      9,          0.5, 0.0218000002,  0.899999976
     10,          0.5, -0.00480000023,  0.899999976
     11,          0.5, -0.0313999988,  0.899999976
     12,          0.5, -0.0579999983,  0.899999976
     13,          0.5,  0.075000003,  0.800000012
     14,          0.5, 0.0483999997,  0.800000012
     15,          0.5, 0.0218000002,  0.800000012
     16,          0.5, -0.00480000023,  0.800000012
     17,          0.5, -0.0313999988,  0.800000012
     18,          0.5, -0.0579999983,  0.800000012
     19,          0.5,  0.075000003,  0.699999988
     20,          0.5, 0.0483999997,  0.699999988
** ... 706 like lines cut
*Element, type=C3D8R
  1,  67,  68,  74,  73,   1,   2,   8,   7
  2,  68,  69,  75,  74,   2,   3,   9,   8
  3,  69,  70,  76,  75,   3,   4,  10,   9
  4,  70,  71,  77,  76,   4,   5,  11,  10
  5,  71,  72,  78,  77,   5,   6,  12,  11
  6,  73,  74,  80,  79,   7,   8,  14,  13
  7,  74,  75,  81,  80,   8,   9,  15,  14
  8,  75,  76,  82,  81,   9,  10,  16,  15
  9,  76,  77,  83,  82,  10,  11,  17,  16
 10,  77,  78,  84,  83,  11,  12,  18,  17
 11,  79,  80,  86,  85,  13,  14,  20,  19
 12,  80,  81,  87,  86,  14,  15,  21,  20
 13,  81,  82,  88,  87,  15,  16,  22,  21
 14,  82,  83,  89,  88,  16,  17,  23,  22
 15,  83,  84,  90,  89,  17,  18,  24,  23
 16,  85,  86,  92,  91,  19,  20,  26,  25
 17,  86,  87,  93,  92,  20,  21,  27,  26
 18,  87,  88,  94,  93,  21,  22,  28,  27
 19,  88,  89,  95,  94,  22,  23,  29,  28
 20,  89,  90,  96,  95,  23,  24,  30,  29
** ... 480 like lines cut
*Nset, nset=ACTIVE_LAYER_ALL, generate
   1,  726,    1
*Elset, elset=ACTIVE_LAYER_ALL, generate
   1,  500,    1
*Nset, nset=ACTIVE_TOP_NODES, generate
   1,  721,    6
*Nset, nset=ACTIVE_INTERFACE_NODES, generate
   6,  726,    6
*Elset, elset=_ACTIVE_TOP_S6, internal, generate
   1,  496,    5
*Surface, type=ELEMENT, name=ACTIVE_TOP
_ACTIVE_TOP_S6, S6
*Elset, elset=_ACTIVE_INTERFACE_S4, internal, generate
   5,  500,    5
*Surface, type=ELEMENT, name=ACTIVE_INTERFACE
_ACTIVE_INTERFACE_S4, S4
** Section: ActiveLayerSection
*Solid Section, elset=ACTIVE_LAYER_ALL, material=Active_Layer
,
*End Part
**  
*Part, name=AlCollector
*Node
      1,          0.5, -0.0579999983,           1.
      2,          0.5, -0.0665000007,           1.
      3,          0.5, -0.075000003,           1.
      4,          0.5, -0.0579999983,  0.899999976
      5,          0.5, -0.0665000007,  0.899999976
      6,          0.5, -0.075000003,  0.899999976
      7,          0.5, -0.0579999983,  0.800000012
      8,          0.5, -0.0665000007,  0.800000012
      9,          0.5, -0.075000003,  0.800000012
     10,          0.5, -0.0579999983,  0.699999988
     11,          0.5, -0.0665000007,  0.699999988
     12,          0.5, -0.075000003,  0.699999988
     13,          0.5, -0.0579999983,  0.600000024
     14,          0.5, -0.0665000007,  0.600000024
     15,          0.5, -0.075000003,  0.600000024
     16,          0.5, -0.0579999983,          0.5
     17,          0.5, -0.0665000007,          0.5
     18,          0.5, -0.075000003,          0.5
     19,          0.5, -0.0579999983,  0.400000006
     20,          0.5, -0.0665000007,  0.400000006
** ... 343 like lines cut
*Element, type=C3D8R
  1,  34,  35,  38,  37,   1,   2,   5,   4
  2,  35,  36,  39,  38,   2,   3,   6,   5
  3,  37,  38,  41,  40,   4,   5,   8,   7
  4,  38,  39,  42,  41,   5,   6,   9,   8
  5,  40,  41,  44,  43,   7,   8,  11,  10
  6,  41,  42,  45,  44,   8,   9,  12,  11
  7,  43,  44,  47,  46,  10,  11,  14,  13
  8,  44,  45,  48,  47,  11,  12,  15,  14
  9,  46,  47,  50,  49,  13,  14,  17,  16
 10,  47,  48,  51,  50,  14,  15,  18,  17
 11,  49,  50,  53,  52,  16,  17,  20,  19
 12,  50,  51,  54,  53,  17,  18,  21,  20
 13,  52,  53,  56,  55,  19,  20,  23,  22
 14,  53,  54,  57,  56,  20,  21,  24,  23
 15,  55,  56,  59,  58,  22,  23,  26,  25
 16,  56,  57,  60,  59,  23,  24,  27,  26
 17,  58,  59,  62,  61,  25,  26,  29,  28
 18,  59,  60,  63,  62,  26,  27,  30,  29
 19,  61,  62,  65,  64,  28,  29,  32,  31
 20,  62,  63,  66,  65,  29,  30,  33,  32
** ... 180 like lines cut
*Nset, nset=AL_COLLECTOR_ALL, generate
   1,  363,    1
*Elset, elset=AL_COLLECTOR_ALL, generate
   1,  200,    1
*Nset, nset=AL_INTERFACE_NODES, generate
   1,  361,    3
*Nset, nset=AL_BOTTOM_NODES, generate
   3,  363,    3
*Nset, nset=DRIFT_CORNER_A
 363,
*Nset, nset=DRIFT_CORNER_B
 33,
*Elset, elset=_AL_INTERFACE_S6, internal, generate
   1,  199,    2
*Surface, type=ELEMENT, name=AL_INTERFACE
_AL_INTERFACE_S6, S6
*Elset, elset=_AL_BOTTOM_S4, internal, generate
   2,  200,    2
*Surface, type=ELEMENT, name=AL_BOTTOM
_AL_BOTTOM_S4, S4
** Section: AlCollectorSection
*Solid Section, elset=AL_COLLECTOR_ALL, material=Al_Current_Collector
,
*End Part
**  
*Part, name=BottomRigidPlate
*End Part
**  
*Part, name=TopRigidPlate
*End Part
**  
**
** ASSEMBLY
**
*Assembly, name=Assembly
**  
*Instance, name=ACTIVE_LAYER-1, part=ActiveLayer
          0.,           0.,         -0.5
*End Instance
**  
*Instance, name=AL_COLLECTOR-1, part=AlCollector
          0.,           0.,         -0.5
*End Instance
**  
*Instance, name=BOTTOM_PLATE-1, part=BottomRigidPlate
          0.,       -0.075,         -0.6
*Node
      1,           0.,           0.,  0.600000024
*Nset, nset=BOTTOM_PLATE-1-RefPt_, internal
1, 
*Surface, type=CYLINDER, name=PLATE_SURFACE
START,         -0.6,           0.
 LINE,          0.6,           0.
*End Instance
**  
*Instance, name=TOP_PLATE-1, part=TopRigidPlate
          0.,        0.075,         -0.6
*Node
      1,           0.,           0.,  0.600000024
*Nset, nset=TOP_PLATE-1-RefPt_, internal
1, 
*Surface, type=CYLINDER, name=PLATE_SURFACE
START,          0.6,           0.
 LINE,         -0.6,           0.
*End Instance
**  
*Nset, nset=BOTTOM_RP, instance=BOTTOM_PLATE-1
 1,
*Nset, nset=TOP_RP, instance=TOP_PLATE-1
 1,
*Nset, nset=_PickedSet12, internal, instance=BOTTOM_PLATE-1
 1,
*Nset, nset=_PickedSet13, internal, instance=TOP_PLATE-1
 1,
** Constraint: RigidBody-Bottom
*Rigid Body, ref node=_PickedSet12, analytical surface=BOTTOM_PLATE-1.PLATE_SURFACE
** Constraint: RigidBody-Top
*Rigid Body, ref node=_PickedSet13, analytical surface=TOP_PLATE-1.PLATE_SURFACE
** Constraint: Tie-Active-Al
*Tie, name=Tie-Active-Al, adjust=no
ACTIVE_LAYER-1.ACTIVE_INTERFACE, AL_COLLECTOR-1.AL_INTERFACE
*End Assembly
** 
** MATERIALS
** 
*Material, name=Active_Layer
*Elastic
609., 0.1
*Plastic
 10.,   0.
 20.,  0.1
 35.,  0.2
 62.,  0.3
 92.,  0.4
145.,  0.5
230., 0.63
*Material, name=Al_Current_Collector
*Elastic
72000., 0.33
** 
** INTERACTION PROPERTIES
** 
*Surface Interaction, name=PlateElectrodeContact
1.,
*Friction
0.,
*Surface Behavior, pressure-overclosure=HARD
** 
** BOUNDARY CONDITIONS
** 
** Name: BC-BottomPlate-Fixed Type: 对称/反对称/完全固定
*Boundary
BOTTOM_RP, ENCASTRE
** Name: BC-Drift-A Type: 位移/转角
*Boundary
AL_COLLECTOR-1.DRIFT_CORNER_A, 1, 1
AL_COLLECTOR-1.DRIFT_CORNER_A, 3, 3
** Name: BC-Drift-B Type: 位移/转角
*Boundary
AL_COLLECTOR-1.DRIFT_CORNER_B, 3, 3
** Name: BC-TopPlate Type: 位移/转角
*Boundary
TOP_RP, 1, 1
TOP_RP, 2, 2
TOP_RP, 3, 3
TOP_RP, 4, 4
TOP_RP, 5, 5
TOP_RP, 6, 6
** 
** INTERACTIONS
** 
** Interaction: Contact-Bottom-Al
*Contact Pair, interaction=PlateElectrodeContact, type=SURFACE TO SURFACE
AL_COLLECTOR-1.AL_BOTTOM, BOTTOM_PLATE-1.PLATE_SURFACE
** Interaction: Contact-Top-Active
*Contact Pair, interaction=PlateElectrodeContact, type=SURFACE TO SURFACE
ACTIVE_LAYER-1.ACTIVE_TOP, TOP_PLATE-1.PLATE_SURFACE
** ----------------------------------------------------------------
** 
** STEP: Step-1 Compression
** 
*Step, name="Step-1 Compression", nlgeom=YES, inc=1000
*Static, stabilize=0.0002, allsdtol=0, continue=NO
0.02, 1., 1e-08, 0.05
** 
** BOUNDARY CONDITIONS
** 
** Name: BC-TopPlate Type: 位移/转角
*Boundary
TOP_RP, 2, 2, -0.015
** 
** OUTPUT REQUESTS
** 
*Restart, write, frequency=0
** 
** FIELD OUTPUT: F-TwoLayerElectrode
** 
*Output, field
*Node Output
U, 
*Element Output, directions=YES
EVOL, LE, PE, PEEQ, S
** 
** HISTORY OUTPUT: H-Energy
** 
*Output, history
*Energy Output
ALLIE, ALLPD, ALLSD
** 
** HISTORY OUTPUT: H-TopRP
** 
*Node Output, nset=TOP_RP
RF2, U2
*End Step
** ----------------------------------------------------------------
** 
** STEP: Step-2 Unload
** 
*Step, name="Step-2 Unload", nlgeom=YES, inc=1000
*Static, stabilize=0.0002, allsdtol=0, continue=NO
0.02, 1., 1e-08, 0.05
** 
** BOUNDARY CONDITIONS
** 
** Name: BC-TopPlate Type: 位移/转角
*Boundary
TOP_RP, 2, 2
** 
** OUTPUT REQUESTS
** 
*Restart, write, frequency=0
** 
** FIELD OUTPUT: F-TwoLayerElectrode
** 
*Output, field
*Node Output
U, 
*Element Output, directions=YES
EVOL, LE, PE, PEEQ, S
** 
** HISTORY OUTPUT: H-Energy
** 
*Output, history
*Energy Output
ALLIE, ALLPD, ALLSD
** 
** HISTORY OUTPUT: H-TopRP
** 
*Node Output, nset=TOP_RP
RF2, U2
*End Step
