*Heading
 Three-layer electrode compression and unloading validation
** Job name: Yang_Macro_LayeredElectrode_Compression Model name: Yang_Macro_LayeredElectrode_Compression
** Generated by: Abaqus/CAE 2025
*Preprint, echo=NO, model=NO, history=NO, contact=NO
**
** PARTS
**
*Part, name=BottomRigidPlate
*End Part
**  
*Part, name=LayeredElectrode
*Node
      1,          0.5, 0.00749999983,           1.
      2,          0.5, 0.00749999983,           0.
      3,          0.5, 0.0825000033,           0.
      4,          0.5, 0.0825000033,           1.
      5,         -0.5, 0.00749999983,           0.
      6,         -0.5, 0.0825000033,           0.
      7,         -0.5, 0.0825000033,           1.
      8,         -0.5, 0.00749999983,           1.
      9,          0.5, -0.00749999983,           0.
     10,          0.5, -0.00749999983,           1.
     11,          0.5, -0.0825000033,           1.
     12,          0.5, -0.0825000033,           0.
     13,         -0.5, -0.00749999983,           1.
     14,         -0.5, -0.0825000033,           1.
     15,         -0.5, -0.0825000033,           0.
     16,         -0.5, -0.00749999983,           0.
     17,          0.5, 0.00749999983,  0.899999976
     18,          0.5, 0.00749999983,  0.800000012
     19,          0.5, 0.00749999983,  0.699999988
     20,          0.5, 0.00749999983,  0.600000024
** ... 1069 like lines cut
*Element, type=C3D8R
  1,  78, 253, 685, 217,   1,  17, 181,  38
  2, 253, 254, 686, 685,  17,  18, 182, 181
  3, 254, 255, 687, 686,  18,  19, 183, 182
  4, 255, 256, 688, 687,  19,  20, 184, 183
  5, 256, 257, 689, 688,  20,  21, 185, 184
  6, 257, 258, 690, 689,  21,  22, 186, 185
  7, 258, 259, 691, 690,  22,  23, 187, 186
  8, 259, 260, 692, 691,  23,  24, 188, 187
  9, 260, 261, 693, 692,  24,  25, 189, 188
 10, 261,  88, 235, 693,  25,   2,  26, 189
 11, 217, 685, 694, 218,  38, 181, 190,  37
 12, 685, 686, 695, 694, 181, 182, 191, 190
 13, 686, 687, 696, 695, 182, 183, 192, 191
 14, 687, 688, 697, 696, 183, 184, 193, 192
 15, 688, 689, 698, 697, 184, 185, 194, 193
 16, 689, 690, 699, 698, 185, 186, 195, 194
 17, 690, 691, 700, 699, 186, 187, 196, 195
 18, 691, 692, 701, 700, 187, 188, 197, 196
 19, 692, 693, 702, 701, 188, 189, 198, 197
 20, 693, 235, 236, 702, 189,  26,  27, 198
** ... 780 like lines cut
*Nset, nset=LOWER_ACTIVE
    9,   10,   11,   12,   13,   14,   15,   16,   97,   98,   99,  100,  101,  102,  103,  104
  105,  106,  107,  108,  109,  110,  111,  112,  113,  114,  115,  116,  117,  118,  119,  120
  121,  122,  123,  124,  125,  126,  127,  128,  129,  130,  131,  132,  133,  134,  135,  136
  137,  138,  139,  140,  141,  142,  143,  144,  145,  146,  147,  148,  149,  150,  151,  152
  153,  154,  155,  156,  157,  158,  159,  160,  161,  162,  163,  164,  165,  166,  167,  168
  169,  170,  171,  172,  173,  174,  175,  176,  415,  416,  417,  418,  419,  420,  421,  422
  423,  424,  425,  426,  427,  428,  429,  430,  431,  432,  433,  434,  435,  436,  437,  438
  439,  440,  441,  442,  443,  444,  445,  446,  447,  448,  449,  450,  451,  452,  453,  454
  455,  456,  457,  458,  459,  460,  461,  462,  463,  464,  465,  466,  467,  468,  469,  470
  471,  472,  473,  474,  475,  476,  477,  478,  479,  480,  481,  482,  483,  484,  485,  486
  487,  488,  489,  490,  491,  492,  493,  494,  495,  496,  497,  498,  499,  500,  501,  502
  503,  504,  505,  506,  507,  508,  509,  510,  511,  512,  513,  514,  515,  516,  517,  518
  519,  520,  521,  522,  523,  524,  525,  526,  527,  528,  529,  530,  531,  532,  533,  534
  535,  536,  537,  538,  539,  540,  541,  542,  543,  544,  545,  546,  547,  548,  549,  550
  551,  552,  553,  554,  555,  556,  557,  558,  559,  560,  561,  562,  563,  564,  565,  566
  567,  568,  569,  570,  571,  572,  573,  574,  575,  576,  577,  578,  579,  580,  581,  582
  583,  584,  585,  586,  587,  588,  589,  590,  591,  592,  593,  594,  595,  596,  597,  598
  599,  600,  601,  602,  603,  604,  605,  606,  607,  608,  609,  610,  611,  612,  613,  614
  615,  616,  617,  618,  619,  620,  621,  622,  623,  624,  625,  626,  627,  628,  629,  630
  631,  632,  633,  634,  635,  636,  637,  638,  639,  640,  641,  642,  643,  644,  645,  646
** ... 11 like lines cut
*Elset, elset=LOWER_ACTIVE, generate
 301,  600,    1
*Nset, nset=AL_COLLECTOR
    1,    2,    5,    8,    9,   10,   13,   16,   17,   18,   19,   20,   21,   22,   23,   24
   25,   39,   40,   41,   42,   43,   44,   45,   46,   47,   70,   71,   72,   73,   74,   75
   76,   77,   78,   88,   89,   90,   91,   92,   93,   94,   95,   96,   97,   98,   99,  100
  101,  102,  103,  104,  105,  119,  120,  121,  122,  123,  124,  125,  126,  127,  150,  151
  152,  153,  154,  155,  156,  157,  158,  168,  169,  170,  171,  172,  173,  174,  175,  176
  177,  178,  179,  180,  253,  254,  255,  256,  257,  258,  259,  260,  261,  262,  263,  264
  265,  266,  267,  268,  269,  270,  271,  272,  273,  274,  275,  276,  277,  278,  279,  280
  281,  282,  283,  284,  285,  286,  287,  288,  289,  290,  291,  292,  293,  294,  295,  296
  297,  298,  299,  300,  301,  302,  303,  304,  305,  306,  307,  308,  309,  310,  311,  312
  313,  314,  315,  316,  317,  318,  319,  320,  321,  322,  323,  324,  325,  326,  327,  328
  329,  330,  331,  332,  333,  487,  488,  489,  490,  491,  492,  493,  494,  495,  496,  497
  498,  499,  500,  501,  502,  503,  504,  505,  506,  507,  508,  509,  510,  511,  512,  513
  514,  515,  516,  517,  518,  519,  520,  521,  522,  523,  524,  525,  526,  527,  528,  529
  530,  531,  532,  533,  534,  535,  536,  537,  538,  539,  540,  541,  542,  543,  544,  545
  546,  547,  548,  549,  550,  551,  552,  553,  554,  555,  556,  557,  558,  559,  560,  561
  562,  563,  564,  565,  566,  567,  649,  650,  651,  652,  653,  654,  655,  656,  657,  658
  659,  660,  661,  662,  663,  664,  665,  666,  667,  668,  669,  670,  671,  672,  673,  674
  675,  676,  677,  678,  679,  680,  681,  682,  683,  684, 1009, 1010, 1011, 1012, 1013, 1014
 1015, 1016, 1017, 1018, 1019, 1020, 1021, 1022, 1023, 1024, 1025, 1026, 1027, 1028, 1029, 1030
 1031, 1032, 1033, 1034, 1035, 1036, 1037, 1038, 1039, 1040, 1041, 1042, 1043, 1044, 1045, 1046
 1047, 1048, 1049, 1050, 1051, 1052, 1053, 1054, 1055, 1056, 1057, 1058, 1059, 1060, 1061, 1062
 1063, 1064, 1065, 1066, 1067, 1068, 1069, 1070, 1071, 1072, 1073, 1074, 1075, 1076, 1077, 1078
 1079, 1080, 1081, 1082, 1083, 1084, 1085, 1086, 1087, 1088, 1089
*Elset, elset=AL_COLLECTOR, generate
 601,  800,    1
*Nset, nset=UPPER_ACTIVE
   1,   2,   3,   4,   5,   6,   7,   8,  17,  18,  19,  20,  21,  22,  23,  24
  25,  26,  27,  28,  29,  30,  31,  32,  33,  34,  35,  36,  37,  38,  39,  40
  41,  42,  43,  44,  45,  46,  47,  48,  49,  50,  51,  52,  53,  54,  55,  56
  57,  58,  59,  60,  61,  62,  63,  64,  65,  66,  67,  68,  69,  70,  71,  72
  73,  74,  75,  76,  77,  78,  79,  80,  81,  82,  83,  84,  85,  86,  87,  88
  89,  90,  91,  92,  93,  94,  95,  96, 181, 182, 183, 184, 185, 186, 187, 188
 189, 190, 191, 192, 193, 194, 195, 196, 197, 198, 199, 200, 201, 202, 203, 204
 205, 206, 207, 208, 209, 210, 211, 212, 213, 214, 215, 216, 217, 218, 219, 220
 221, 222, 223, 224, 225, 226, 227, 228, 229, 230, 231, 232, 233, 234, 235, 236
 237, 238, 239, 240, 241, 242, 243, 244, 245, 246, 247, 248, 249, 250, 251, 252
 253, 254, 255, 256, 257, 258, 259, 260, 261, 262, 263, 264, 265, 266, 267, 268
 269, 270, 271, 272, 273, 274, 275, 276, 277, 278, 279, 280, 281, 282, 283, 284
 285, 286, 287, 288, 289, 290, 291, 292, 293, 294, 295, 296, 297, 298, 299, 300
 301, 302, 303, 304, 305, 306, 307, 308, 309, 310, 311, 312, 313, 314, 315, 316
 317, 318, 319, 320, 321, 322, 323, 324, 325, 326, 327, 328, 329, 330, 331, 332
 333, 334, 335, 336, 337, 338, 339, 340, 341, 342, 343, 344, 345, 346, 347, 348
 349, 350, 351, 352, 353, 354, 355, 356, 357, 358, 359, 360, 361, 362, 363, 364
 365, 366, 367, 368, 369, 370, 371, 372, 373, 374, 375, 376, 377, 378, 379, 380
 381, 382, 383, 384, 385, 386, 387, 388, 389, 390, 391, 392, 393, 394, 395, 396
 397, 398, 399, 400, 401, 402, 403, 404, 405, 406, 407, 408, 409, 410, 411, 412
** ... 11 like lines cut
*Elset, elset=UPPER_ACTIVE, generate
   1,  300,    1
*Nset, nset=BOTTOM_SURFACE_NODES
  11,  12,  14,  15, 108, 109, 110, 111, 112, 113, 114, 115, 116, 130, 131, 132
 133, 134, 135, 136, 137, 138, 141, 142, 143, 144, 145, 146, 147, 148, 149, 159
 160, 161, 162, 163, 164, 165, 166, 167, 568, 569, 570, 571, 572, 573, 574, 575
 576, 577, 578, 579, 580, 581, 582, 583, 584, 585, 586, 587, 588, 589, 590, 591
 592, 593, 594, 595, 596, 597, 598, 599, 600, 601, 602, 603, 604, 605, 606, 607
 608, 609, 610, 611, 612, 613, 614, 615, 616, 617, 618, 619, 620, 621, 622, 623
 624, 625, 626, 627, 628, 629, 630, 631, 632, 633, 634, 635, 636, 637, 638, 639
 640, 641, 642, 643, 644, 645, 646, 647, 648
*Nset, nset=LOWER_ACTIVE_AL_INTERFACE_NODES
   9,  10,  13,  16,  97,  98,  99, 100, 101, 102, 103, 104, 105, 119, 120, 121
 122, 123, 124, 125, 126, 127, 150, 151, 152, 153, 154, 155, 156, 157, 158, 168
 169, 170, 171, 172, 173, 174, 175, 176, 487, 488, 489, 490, 491, 492, 493, 494
 495, 496, 497, 498, 499, 500, 501, 502, 503, 504, 505, 506, 507, 508, 509, 510
 511, 512, 513, 514, 515, 516, 517, 518, 519, 520, 521, 522, 523, 524, 525, 526
 527, 528, 529, 530, 531, 532, 533, 534, 535, 536, 537, 538, 539, 540, 541, 542
 543, 544, 545, 546, 547, 548, 549, 550, 551, 552, 553, 554, 555, 556, 557, 558
 559, 560, 561, 562, 563, 564, 565, 566, 567
*Nset, nset=AL_UPPER_ACTIVE_INTERFACE_NODES
   1,   2,   5,   8,  17,  18,  19,  20,  21,  22,  23,  24,  25,  39,  40,  41
  42,  43,  44,  45,  46,  47,  70,  71,  72,  73,  74,  75,  76,  77,  78,  88
  89,  90,  91,  92,  93,  94,  95,  96, 253, 254, 255, 256, 257, 258, 259, 260
 261, 262, 263, 264, 265, 266, 267, 268, 269, 270, 271, 272, 273, 274, 275, 276
 277, 278, 279, 280, 281, 282, 283, 284, 285, 286, 287, 288, 289, 290, 291, 292
 293, 294, 295, 296, 297, 298, 299, 300, 301, 302, 303, 304, 305, 306, 307, 308
 309, 310, 311, 312, 313, 314, 315, 316, 317, 318, 319, 320, 321, 322, 323, 324
 325, 326, 327, 328, 329, 330, 331, 332, 333
*Nset, nset=TOP_SURFACE_NODES
   3,   4,   6,   7,  28,  29,  30,  31,  32,  33,  34,  35,  36,  50,  51,  52
  53,  54,  55,  56,  57,  58,  61,  62,  63,  64,  65,  66,  67,  68,  69,  79
  80,  81,  82,  83,  84,  85,  86,  87, 334, 335, 336, 337, 338, 339, 340, 341
 342, 343, 344, 345, 346, 347, 348, 349, 350, 351, 352, 353, 354, 355, 356, 357
 358, 359, 360, 361, 362, 363, 364, 365, 366, 367, 368, 369, 370, 371, 372, 373
 374, 375, 376, 377, 378, 379, 380, 381, 382, 383, 384, 385, 386, 387, 388, 389
 390, 391, 392, 393, 394, 395, 396, 397, 398, 399, 400, 401, 402, 403, 404, 405
 406, 407, 408, 409, 410, 411, 412, 413, 414
*Nset, nset=DRIFT_CORNER_A
 15,
*Nset, nset=DRIFT_CORNER_B
 12,
*Elset, elset=_ELECTRODE_TOP_S5, internal
  21,  22,  23,  24,  25,  26,  27,  28,  29,  30,  51,  52,  53,  54,  55,  56
  57,  58,  59,  60,  81,  82,  83,  84,  85,  86,  87,  88,  89,  90, 111, 112
 113, 114, 115, 116, 117, 118, 119, 120, 141, 142, 143, 144, 145, 146, 147, 148
 149, 150, 171, 172, 173, 174, 175, 176, 177, 178, 179, 180, 201, 202, 203, 204
 205, 206, 207, 208, 209, 210, 231, 232, 233, 234, 235, 236, 237, 238, 239, 240
 261, 262, 263, 264, 265, 266, 267, 268, 269, 270, 291, 292, 293, 294, 295, 296
 297, 298, 299, 300
*Surface, type=ELEMENT, name=ELECTRODE_TOP
_ELECTRODE_TOP_S5, S5
*Elset, elset=_ELECTRODE_BOTTOM_S5, internal
 321, 322, 323, 324, 325, 326, 327, 328, 329, 330, 351, 352, 353, 354, 355, 356
 357, 358, 359, 360, 381, 382, 383, 384, 385, 386, 387, 388, 389, 390, 411, 412
 413, 414, 415, 416, 417, 418, 419, 420, 441, 442, 443, 444, 445, 446, 447, 448
 449, 450, 471, 472, 473, 474, 475, 476, 477, 478, 479, 480, 501, 502, 503, 504
 505, 506, 507, 508, 509, 510, 531, 532, 533, 534, 535, 536, 537, 538, 539, 540
 561, 562, 563, 564, 565, 566, 567, 568, 569, 570, 591, 592, 593, 594, 595, 596
 597, 598, 599, 600
*Surface, type=ELEMENT, name=ELECTRODE_BOTTOM
_ELECTRODE_BOTTOM_S5, S5
** Section: ActiveLayerSection
*Solid Section, elset=UPPER_ACTIVE, material=Active_Layer
,
** Section: ActiveLayerSection
*Solid Section, elset=LOWER_ACTIVE, material=Active_Layer
,
** Section: AlCollectorSection
*Solid Section, elset=AL_COLLECTOR, material=Al_Current_Collector
,
*End Part
**  
*Part, name=TopRigidPlate
*End Part
**  
**
** ASSEMBLY
**
*Assembly, name=Assembly
**  
*Instance, name=LAYERED_ELECTRODE-1, part=LayeredElectrode
          0.,           0.,         -0.5
*End Instance
**  
*Instance, name=BOTTOM_PLATE-1, part=BottomRigidPlate
          0.,      -0.0825,         -0.6
*Node
      1,           0.,           0.,  0.600000024
*Nset, nset=BOTTOM_PLATE-1-RefPt_, internal
1, 
*Surface, type=CYLINDER, name=PLATE_SURFACE
START,         -0.6,           0.
 LINE,          0.6,           0.
*End Instance
**  
*Instance, name=TOP_PLATE-1, part=TopRigidPlate
          0.,       0.0825,         -0.6
*Node
      1,           0.,           0.,  0.600000024
*Nset, nset=TOP_PLATE-1-RefPt_, internal
1, 
*Surface, type=CYLINDER, name=PLATE_SURFACE
START,          0.6,           0.
 LINE,         -0.6,           0.
*End Instance
**  
*Nset, nset=BOTTOM_RP, instance=BOTTOM_PLATE-1
 1,
*Nset, nset=TOP_RP, instance=TOP_PLATE-1
 1,
*Nset, nset=_PickedSet10, internal, instance=BOTTOM_PLATE-1
 1,
*Nset, nset=_PickedSet11, internal, instance=TOP_PLATE-1
 1,
** Constraint: RigidBody-Bottom
*Rigid Body, ref node=_PickedSet10, analytical surface=BOTTOM_PLATE-1.PLATE_SURFACE
** Constraint: RigidBody-Top
*Rigid Body, ref node=_PickedSet11, analytical surface=TOP_PLATE-1.PLATE_SURFACE
*End Assembly
** 
** MATERIALS
** 
*Material, name=Active_Layer
*Elastic
609., 0.1
*Plastic
 10.,   0.
 20.,  0.1
 35.,  0.2
 62.,  0.3
 92.,  0.4
145.,  0.5
230., 0.63
*Material, name=Al_Current_Collector
*Elastic
72000., 0.33
** 
** INTERACTION PROPERTIES
** 
*Surface Interaction, name=PlateElectrodeContact
1.,
*Friction
0.,
*Surface Behavior, pressure-overclosure=HARD
** 
** BOUNDARY CONDITIONS
** 
** Name: BC-BottomPlate-Fixed Type: 对称/反对称/完全固定
*Boundary
BOTTOM_RP, ENCASTRE
** Name: BC-Drift-A Type: 位移/转角
*Boundary
LAYERED_ELECTRODE-1.DRIFT_CORNER_A, 1, 1
LAYERED_ELECTRODE-1.DRIFT_CORNER_A, 3, 3
** Name: BC-Drift-B Type: 位移/转角
*Boundary
LAYERED_ELECTRODE-1.DRIFT_CORNER_B, 3, 3
** Name: BC-TopPlate Type: 位移/转角
*Boundary
TOP_RP, 1, 1
TOP_RP, 2, 2
TOP_RP, 3, 3
TOP_RP, 4, 4
TOP_RP, 5, 5
TOP_RP, 6, 6
** 
** INTERACTIONS
** 
** Interaction: Contact-Bottom
*Contact Pair, interaction=PlateElectrodeContact, type=SURFACE TO SURFACE
LAYERED_ELECTRODE-1.ELECTRODE_BOTTOM, BOTTOM_PLATE-1.PLATE_SURFACE
** Interaction: Contact-Top
*Contact Pair, interaction=PlateElectrodeContact, type=SURFACE TO SURFACE
LAYERED_ELECTRODE-1.ELECTRODE_TOP, TOP_PLATE-1.PLATE_SURFACE
** ----------------------------------------------------------------
** 
** STEP: Step-1 Compression
** 
*Step, name="Step-1 Compression", nlgeom=YES, inc=1000
*Static, stabilize=0.0002, allsdtol=0, continue=NO
0.02, 1., 1e-08, 0.05
** 
** BOUNDARY CONDITIONS
** 
** Name: BC-TopPlate Type: 位移/转角
*Boundary
TOP_RP, 2, 2, -0.015
** 
** OUTPUT REQUESTS
** 
*Restart, write, frequency=0
** 
** FIELD OUTPUT: F-LayeredElectrode
** 
*Output, field
*Node Output
U, 
*Element Output, directions=YES
EVOL, LE, PE, PEEQ, S
** 
** HISTORY OUTPUT: H-Energy
** 
*Output, history
*Energy Output
ALLIE, ALLPD, ALLSD
** 
** HISTORY OUTPUT: H-TopRP
** 
*Node Output, nset=TOP_RP
RF2, U2
*End Step
** ----------------------------------------------------------------
** 
** STEP: Step-2 Unload
** 
*Step, name="Step-2 Unload", nlgeom=YES, inc=1000
*Static, stabilize=0.0002, allsdtol=0, continue=NO
0.02, 1., 1e-08, 0.05
** 
** BOUNDARY CONDITIONS
** 
** Name: BC-TopPlate Type: 位移/转角
*Boundary
TOP_RP, 2, 2
** 
** OUTPUT REQUESTS
** 
*Restart, write, frequency=0
** 
** FIELD OUTPUT: F-LayeredElectrode
** 
*Output, field
*Node Output
U, 
*Element Output, directions=YES
EVOL, LE, PE, PEEQ, S
** 
** HISTORY OUTPUT: H-Energy
** 
*Output, history
*Energy Output
ALLIE, ALLPD, ALLSD
** 
** HISTORY OUTPUT: H-TopRP
** 
*Node Output, nset=TOP_RP
RF2, U2
*End Step
