*Heading
 3D explicit staged clamp-then-roll model for a self-supporting coating film
** Job name: RP3D_Self_DPC_S030_50mm_Roll10mm_dt5e6_CoarseRoller_V2p2 Model name: RP3D_Self_DPC_S030_50mm_Roll10mm_dt5e6_CoarseRoller_V2p2
** Generated by: Abaqus/CAE 2025
*Preprint, echo=NO, model=NO, history=NO, contact=NO
**
** PARTS
**
*Part, name=ActiveLayer
*Node
      1,          -1.,  0.150000006,         100.
      2,          -1.,  0.150000006,           0.
      3,          -5.,  0.150000006,           0.
      4,          -5.,  0.150000006,         100.
      5,          -1.,           0.,           0.
      6,          -5.,           0.,           0.
      7,          -5.,           0.,         100.
      8,          -1.,           0.,         100.
      9,         -15.,  0.150000006,           0.
     10,         -15.,  0.150000006,         100.
     11,         -15.,           0.,           0.
     12,         -15.,           0.,         100.
     13,         -35.,           0.,         100.
     14,         -35.,           0.,           0.
     15,         -35.,  0.150000006,         100.
     16,         -35.,  0.150000006,           0.
     17,         -50.,           0.,         100.
     18,         -50.,           0.,           0.
     19,         -50.,  0.150000006,         100.
     20,         -50.,  0.150000006,           0.
** ... 5776 like lines cut
*Element, type=C3D8R
  1,  124,  645, 2757,  613,    1,   25,  461,   70
  2,  645,  646, 2758, 2757,   25,   26,  462,  461
  3,  646,  647, 2759, 2758,   26,   27,  463,  462
  4,  647,  648, 2760, 2759,   27,   28,  464,  463
  5,  648,  649, 2761, 2760,   28,   29,  465,  464
  6,  649,  650, 2762, 2761,   29,   30,  466,  465
  7,  650,  651, 2763, 2762,   30,   31,  467,  466
  8,  651,  652, 2764, 2763,   31,   32,  468,  467
  9,  652,  653, 2765, 2764,   32,   33,  469,  468
 10,  653,  654, 2766, 2765,   33,   34,  470,  469
 11,  654,  655, 2767, 2766,   34,   35,  471,  470
 12,  655,  656, 2768, 2767,   35,   36,  472,  471
 13,  656,  657, 2769, 2768,   36,   37,  473,  472
 14,  657,  658, 2770, 2769,   37,   38,  474,  473
 15,  658,  659, 2771, 2770,   38,   39,  475,  474
 16,  659,  660, 2772, 2771,   39,   40,  476,  475
 17,  660,  661, 2773, 2772,   40,   41,  477,  476
 18,  661,  662, 2774, 2773,   41,   42,  478,  477
 19,  662,  663, 2775, 2774,   42,   43,  479,  478
 20,  663,  129,  629, 2775,   43,    2,   44,  479
** ... 4480 like lines cut
*Nset, nset=_PickedSet10, internal, generate
    1,  5796,     1
*Elset, elset=_PickedSet10, internal, generate
    1,  4500,     1
*Elset, elset=_Top_S2, internal
   1,   2,   3,   4,   5,   6,   7,   8,   9,  10,  11,  12,  13,  14,  15,  16
  17,  18,  19,  20,  21,  22,  23,  24,  25,  26,  27,  28,  29,  30,  31,  32
  33,  34,  35,  36,  37,  38,  39,  40,  41,  42,  43,  44,  45,  46,  47,  48
  49,  50,  51,  52,  53,  54,  55,  56,  57,  58,  59,  60,  61,  62,  63,  64
  65,  66,  67,  68,  69,  70,  71,  72,  73,  74,  75,  76,  77,  78,  79,  80
  81,  82,  83,  84,  85,  86,  87,  88,  89,  90,  91,  92,  93,  94,  95,  96
  97,  98,  99, 100, 501, 502, 503, 504, 505, 506, 507, 508, 509, 510, 511, 512
 513, 514, 515, 516, 517, 518, 519, 520, 521, 522, 523, 524, 525, 526, 527, 528
 529, 530, 531, 532, 533, 534, 535, 536, 537, 538, 539, 540, 541, 542, 543, 544
 545, 546, 547, 548, 549, 550, 551, 552, 553, 554, 555, 556, 557, 558, 559, 560
 561, 562, 563, 564, 565, 566, 567, 568, 569, 570, 571, 572, 573, 574, 575, 576
 577, 578, 579, 580, 581, 582, 583, 584, 585, 586, 587, 588, 589, 590, 591, 592
 593, 594, 595, 596, 597, 598, 599, 600, 601, 602, 603, 604, 605, 606, 607, 608
 609, 610, 611, 612, 613, 614, 615, 616, 617, 618, 619, 620, 621, 622, 623, 624
 625, 626, 627, 628, 629, 630, 631, 632, 633, 634, 635, 636, 637, 638, 639, 640
 641, 642, 643, 644, 645, 646, 647, 648, 649, 650, 651, 652, 653, 654, 655, 656
 657, 658, 659, 660, 661, 662, 663, 664, 665, 666, 667, 668, 669, 670, 671, 672
 673, 674, 675, 676, 677, 678, 679, 680, 681, 682, 683, 684, 685, 686, 687, 688
 689, 690, 691, 692, 693, 694, 695, 696, 697, 698, 699, 700, 701, 702, 703, 704
 705, 706, 707, 708, 709, 710, 711, 712, 713, 714, 715, 716, 717, 718, 719, 720
 721, 722, 723, 724, 725, 726, 727, 728, 729, 730, 731, 732, 733, 734, 735, 736
 737, 738, 739, 740, 741, 742, 743, 744, 745, 746, 747, 748, 749, 750, 751, 752
 753, 754, 755, 756, 757, 758, 759, 760
*Elset, elset=_Top_S6, internal, generate
 4401,  4496,     5
*Elset, elset=_Top_S1, internal
 3081, 3082, 3083, 3084, 3085, 3086, 3087, 3088, 3089, 3090, 3091, 3092, 3093, 3094, 3095, 3096
 3097, 3098, 3099, 3100, 3101, 3102, 3103, 3104, 3105, 3106, 3107, 3108, 3109, 3110, 3111, 3112
 3113, 3114, 3115, 3116, 3117, 3118, 3119, 3120, 3121, 3122, 3123, 3124, 3125, 3126, 3127, 3128
 3129, 3130, 3131, 3132, 3133, 3134, 3135, 3136, 3137, 3138, 3139, 3140, 3141, 3142, 3143, 3144
 3145, 3146, 3147, 3148, 3149, 3150, 3151, 3152, 3153, 3154, 3155, 3156, 3157, 3158, 3159, 3160
 3161, 3162, 3163, 3164, 3165, 3166, 3167, 3168, 3169, 3170, 3171, 3172, 3173, 3174, 3175, 3176
 3177, 3178, 3179, 3180, 3181, 3182, 3183, 3184, 3185, 3186, 3187, 3188, 3189, 3190, 3191, 3192
 3193, 3194, 3195, 3196, 3197, 3198, 3199, 3200, 3201, 3202, 3203, 3204, 3205, 3206, 3207, 3208
 3209, 3210, 3211, 3212, 3213, 3214, 3215, 3216, 3217, 3218, 3219, 3220, 3221, 3222, 3223, 3224
 3225, 3226, 3227, 3228, 3229, 3230, 3231, 3232, 3233, 3234, 3235, 3236, 3237, 3238, 3239, 3240
 3241, 3242, 3243, 3244, 3245, 3246, 3247, 3248, 3249, 3250, 3251, 3252, 3253, 3254, 3255, 3256
 3257, 3258, 3259, 3260, 3261, 3262, 3263, 3264, 3265, 3266, 3267, 3268, 3269, 3270, 3271, 3272
 3273, 3274, 3275, 3276, 3277, 3278, 3279, 3280, 3281, 3282, 3283, 3284, 3285, 3286, 3287, 3288
 3289, 3290, 3291, 3292, 3293, 3294, 3295, 3296, 3297, 3298, 3299, 3300, 3301, 3302, 3303, 3304
 3305, 3306, 3307, 3308, 3309, 3310, 3311, 3312, 3313, 3314, 3315, 3316, 3317, 3318, 3319, 3320
 3321, 3322, 3323, 3324, 3325, 3326, 3327, 3328, 3329, 3330, 3331, 3332, 3333, 3334, 3335, 3336
 3337, 3338, 3339, 3340, 3341, 3342, 3343, 3344, 3345, 3346, 3347, 3348, 3349, 3350, 3351, 3352
 3353, 3354, 3355, 3356, 3357, 3358, 3359, 3360, 3361, 3362, 3363, 3364, 3365, 3366, 3367, 3368
 3369, 3370, 3371, 3372, 3373, 3374, 3375, 3376, 3377, 3378, 3379, 3380, 3381, 3382, 3383, 3384
 3385, 3386, 3387, 3388, 3389, 3390, 3391, 3392, 3393, 3394, 3395, 3396, 3397, 3398, 3399, 3400
** ... 13 like lines cut
*Surface, type=ELEMENT, name=Top
_Top_S2, S2
_Top_S6, S6
_Top_S1, S1
*Elset, elset=_Bottom_S4, internal, generate
 4405,  4500,     5
*Elset, elset=_Bottom_S1, internal
  401,  402,  403,  404,  405,  406,  407,  408,  409,  410,  411,  412,  413,  414,  415,  416
  417,  418,  419,  420,  421,  422,  423,  424,  425,  426,  427,  428,  429,  430,  431,  432
  433,  434,  435,  436,  437,  438,  439,  440,  441,  442,  443,  444,  445,  446,  447,  448
  449,  450,  451,  452,  453,  454,  455,  456,  457,  458,  459,  460,  461,  462,  463,  464
  465,  466,  467,  468,  469,  470,  471,  472,  473,  474,  475,  476,  477,  478,  479,  480
  481,  482,  483,  484,  485,  486,  487,  488,  489,  490,  491,  492,  493,  494,  495,  496
  497,  498,  499,  500, 1541, 1542, 1543, 1544, 1545, 1546, 1547, 1548, 1549, 1550, 1551, 1552
 1553, 1554, 1555, 1556, 1557, 1558, 1559, 1560, 1561, 1562, 1563, 1564, 1565, 1566, 1567, 1568
 1569, 1570, 1571, 1572, 1573, 1574, 1575, 1576, 1577, 1578, 1579, 1580, 1581, 1582, 1583, 1584
 1585, 1586, 1587, 1588, 1589, 1590, 1591, 1592, 1593, 1594, 1595, 1596, 1597, 1598, 1599, 1600
 1601, 1602, 1603, 1604, 1605, 1606, 1607, 1608, 1609, 1610, 1611, 1612, 1613, 1614, 1615, 1616
 1617, 1618, 1619, 1620, 1621, 1622, 1623, 1624, 1625, 1626, 1627, 1628, 1629, 1630, 1631, 1632
 1633, 1634, 1635, 1636, 1637, 1638, 1639, 1640, 1641, 1642, 1643, 1644, 1645, 1646, 1647, 1648
 1649, 1650, 1651, 1652, 1653, 1654, 1655, 1656, 1657, 1658, 1659, 1660, 1661, 1662, 1663, 1664
 1665, 1666, 1667, 1668, 1669, 1670, 1671, 1672, 1673, 1674, 1675, 1676, 1677, 1678, 1679, 1680
 1681, 1682, 1683, 1684, 1685, 1686, 1687, 1688, 1689, 1690, 1691, 1692, 1693, 1694, 1695, 1696
 1697, 1698, 1699, 1700, 1701, 1702, 1703, 1704, 1705, 1706, 1707, 1708, 1709, 1710, 1711, 1712
 1713, 1714, 1715, 1716, 1717, 1718, 1719, 1720, 1721, 1722, 1723, 1724, 1725, 1726, 1727, 1728
 1729, 1730, 1731, 1732, 1733, 1734, 1735, 1736, 1737, 1738, 1739, 1740, 1741, 1742, 1743, 1744
 1745, 1746, 1747, 1748, 1749, 1750, 1751, 1752, 1753, 1754, 1755, 1756, 1757, 1758, 1759, 1760
 1761, 1762, 1763, 1764, 1765, 1766, 1767, 1768, 1769, 1770, 1771, 1772, 1773, 1774, 1775, 1776
 1777, 1778, 1779, 1780, 1781, 1782, 1783, 1784, 1785, 1786, 1787, 1788, 1789, 1790, 1791, 1792
 1793, 1794, 1795, 1796, 1797, 1798, 1799, 1800
*Elset, elset=_Bottom_S2, internal
 1801, 1802, 1803, 1804, 1805, 1806, 1807, 1808, 1809, 1810, 1811, 1812, 1813, 1814, 1815, 1816
 1817, 1818, 1819, 1820, 1821, 1822, 1823, 1824, 1825, 1826, 1827, 1828, 1829, 1830, 1831, 1832
 1833, 1834, 1835, 1836, 1837, 1838, 1839, 1840, 1841, 1842, 1843, 1844, 1845, 1846, 1847, 1848
 1849, 1850, 1851, 1852, 1853, 1854, 1855, 1856, 1857, 1858, 1859, 1860, 1861, 1862, 1863, 1864
 1865, 1866, 1867, 1868, 1869, 1870, 1871, 1872, 1873, 1874, 1875, 1876, 1877, 1878, 1879, 1880
 1881, 1882, 1883, 1884, 1885, 1886, 1887, 1888, 1889, 1890, 1891, 1892, 1893, 1894, 1895, 1896
 1897, 1898, 1899, 1900, 1901, 1902, 1903, 1904, 1905, 1906, 1907, 1908, 1909, 1910, 1911, 1912
 1913, 1914, 1915, 1916, 1917, 1918, 1919, 1920, 1921, 1922, 1923, 1924, 1925, 1926, 1927, 1928
 1929, 1930, 1931, 1932, 1933, 1934, 1935, 1936, 1937, 1938, 1939, 1940, 1941, 1942, 1943, 1944
 1945, 1946, 1947, 1948, 1949, 1950, 1951, 1952, 1953, 1954, 1955, 1956, 1957, 1958, 1959, 1960
 1961, 1962, 1963, 1964, 1965, 1966, 1967, 1968, 1969, 1970, 1971, 1972, 1973, 1974, 1975, 1976
 1977, 1978, 1979, 1980, 1981, 1982, 1983, 1984, 1985, 1986, 1987, 1988, 1989, 1990, 1991, 1992
 1993, 1994, 1995, 1996, 1997, 1998, 1999, 2000, 2001, 2002, 2003, 2004, 2005, 2006, 2007, 2008
 2009, 2010, 2011, 2012, 2013, 2014, 2015, 2016, 2017, 2018, 2019, 2020, 2021, 2022, 2023, 2024
 2025, 2026, 2027, 2028, 2029, 2030, 2031, 2032, 2033, 2034, 2035, 2036, 2037, 2038, 2039, 2040
 2041, 2042, 2043, 2044, 2045, 2046, 2047, 2048, 2049, 2050, 2051, 2052, 2053, 2054, 2055, 2056
 2057, 2058, 2059, 2060, 2061, 2062, 2063, 2064, 2065, 2066, 2067, 2068, 2069, 2070, 2071, 2072
 2073, 2074, 2075, 2076, 2077, 2078, 2079, 2080, 2081, 2082, 2083, 2084, 2085, 2086, 2087, 2088
 2089, 2090, 2091, 2092, 2093, 2094, 2095, 2096, 2097, 2098, 2099, 2100, 2101, 2102, 2103, 2104
 2105, 2106, 2107, 2108, 2109, 2110, 2111, 2112, 2113, 2114, 2115, 2116, 2117, 2118, 2119, 2120
** ... 13 like lines cut
*Surface, type=ELEMENT, name=Bottom
_Bottom_S4, S4
_Bottom_S1, S1
_Bottom_S2, S2
*Elset, elset=_Front_S2, internal, generate
 4401,  4500,     1
*Surface, type=ELEMENT, name=Front
_Front_S2, S2
*Elset, elset=_Back_S5, internal
 3581, 3582, 3583, 3584, 3585, 3586, 3587, 3588, 3589, 3590, 3591, 3592, 3593, 3594, 3595, 3596
 3597, 3598, 3599, 3600, 3781, 3782, 3783, 3784, 3785, 3786, 3787, 3788, 3789, 3790, 3791, 3792
 3793, 3794, 3795, 3796, 3797, 3798, 3799, 3800, 3981, 3982, 3983, 3984, 3985, 3986, 3987, 3988
 3989, 3990, 3991, 3992, 3993, 3994, 3995, 3996, 3997, 3998, 3999, 4000, 4181, 4182, 4183, 4184
 4185, 4186, 4187, 4188, 4189, 4190, 4191, 4192, 4193, 4194, 4195, 4196, 4197, 4198, 4199, 4200
 4381, 4382, 4383, 4384, 4385, 4386, 4387, 4388, 4389, 4390, 4391, 4392, 4393, 4394, 4395, 4396
 4397, 4398, 4399, 4400
*Surface, type=ELEMENT, name=Back
_Back_S5, S5
** Section: Sec_ActiveLayer
*Solid Section, elset=_PickedSet10, material=ActiveLayer_Porous_Calibratable
,
*End Part
**  
*Part, name=ElasticRoller_WithShoulders
*Node
      1,          50.,           0.,         130.
      2,          50.,           0.,         140.
      3,          50.,           0.,          10.
      4,          50.,           0.,           0.
      5,   48.9764977,   10.0649261,         130.
      6,   45.9478912,   19.7177925,         130.
      7,   41.0381737,   28.5634098,         130.
      8,   34.4483452,   36.2396393,         130.
      9,   26.4482002,   42.4322128,         130.
     10,    17.365263,   46.8876076,         130.
     11,   7.57138872,   49.4234161,         130.
     12,  -2.53245854,   49.9358253,         130.
     13,  -12.5326262,   48.4038544,         130.
     14,  -22.0197067,   44.8902283,         130.
     15,   -30.605299,   39.5387878,         130.
     16,  -37.9379044,   32.5686226,         130.
     17,  -43.7173309,   24.2650986,         130.
     18,  -47.7069626,   14.9681559,         130.
     19,  -49.7434654,   5.05841589,         130.
     20,  -49.7434654,  -5.05841589,         130.
** ... 1604 like lines cut
*Element, type=C3D4
  1, 198, 774, 191, 239
  2, 774, 257, 267, 273
  3, 774, 239, 198, 257
  4, 151, 257, 195, 198
  5, 257, 195, 198, 774
  6, 775, 264, 272, 269
  7, 269, 180, 193, 775
  8, 192, 269, 180, 193
  9, 235,  46, 776,  45
 10, 180, 269, 270, 775
 11, 168, 270, 189, 180
 12, 270, 189, 180, 775
 13, 775, 270, 189, 264
 14, 777,  36, 215, 139
 15, 777,   1,  34, 140
 16, 777,   2,   1, 140
 17, 777, 140, 216,   2
 18, 166,  25, 776,  24
 19, 777, 216, 229, 215
 20, 216, 229, 778, 140
** ... 7784 like lines cut
*Nset, nset=_PickedSet6, internal, generate
    1,  1624,     1
*Elset, elset=_PickedSet6, internal, generate
    1,  7804,     1
*Elset, elset=_ContactFace_S3, internal
  800,  821,  863,  865,  877,  883,  886,  977, 1015, 1048, 1094, 1107, 1113, 1309, 1335, 1336
 1354, 1369, 1373, 1428, 1437, 1478, 1506, 1696, 1710, 1718, 1731, 1768, 1953, 1990, 2042, 2080
 2160, 2178, 2220, 2252, 2346, 2357, 2361, 2364, 2373, 2385, 2388, 2400, 2413, 2416, 2439, 2461
 2489, 2512, 2521, 2571, 2603, 2605, 2625, 2648, 2674, 2716, 2742, 2773, 2784, 2801, 2805, 2806
 2813, 2817, 2829, 2831, 2833, 2836, 2848, 2889, 2904, 2910, 2935, 2953, 2963, 2970, 2998, 3005
 3006, 3010, 3013, 3018, 3026, 3035, 3064, 3071, 3072, 3077, 3079, 3095, 3102, 3108, 3127, 3130
 3137, 3152, 3153, 3178, 3199, 3221, 3229, 3238, 3240, 3242, 3251, 3253, 3258, 3264, 3266, 3272
 3275, 3282, 3283, 3303, 3308, 3309, 3318, 3321, 3326, 3331, 3332, 3334, 3335, 3339, 3348, 3349
 3357, 3358, 3360, 3363, 3371, 3373, 3374, 3377, 3379, 3415, 3421, 3423, 3424, 3428, 3429, 3433
 3438, 3439, 3444, 3445, 3446, 3448, 3453, 3455, 3457, 3461, 3462, 3463, 3473, 3475, 3478, 3482
 3490, 3492, 3493, 3496, 3504, 3508, 3515, 3517, 3520, 3524, 3527, 3530, 3534, 3537, 3545, 3546
 3550, 3554, 3558, 3567, 3569, 3578, 3583, 3591, 3596, 3599, 3603, 3605, 3606, 3608, 3613, 3614
 3620, 3627, 3630, 3631, 3634, 3635, 3636, 3637, 3640, 3647, 3650, 3652, 3653, 3659, 3661, 3664
 3666, 3670, 3671, 3673, 3679, 3685, 3687, 3691, 3693, 3699, 3707, 3710, 3714, 3716, 3717, 3721
 3722, 3723, 3728, 3733, 3736, 3743, 3745, 3755, 3758, 3759, 3760, 3762, 3766, 3767, 3771, 3774
 3776, 3780, 3783, 3787, 3792, 3795, 3797, 3803, 3804, 3809, 3810, 3812, 3813, 3826, 3833, 3842
 3844, 3848, 3852, 3855, 3857, 3863, 3870, 3872, 3877, 3880, 3883, 3886, 3888, 3889, 3898, 3906
 3909, 3912, 3915, 3918, 3922, 3927, 3930, 3932, 3935, 3937, 3939, 3950, 3951, 3952, 3958, 3960
 3964, 3971, 3973, 3977, 3978, 3983, 3990, 3991, 3993, 4002, 4006, 4017, 4018, 4020, 4036, 4051
 4052, 4058, 4059, 4060, 4065, 4066, 4069, 4075, 4076, 4083, 4092, 4093, 4095, 4096, 4100, 4101
** ... 22 like lines cut
*Elset, elset=_ContactFace_S1, internal
 1725, 2243, 2434, 2622, 2724, 2756, 3029, 3030, 3049, 3096, 3114, 3135, 3149, 3158, 3176, 3204
 3216, 4013, 4193, 4822, 4941, 5819, 6059, 6694
*Elset, elset=_ContactFace_S4, internal
 2118, 2575, 2644, 2671, 2711, 3196, 3249, 3278, 3499, 3747, 3864, 4089, 5473, 5478, 5726, 5842
 5968, 6321, 6576, 6918
*Elset, elset=_ContactFace_S2, internal
 2365, 2506, 2527, 2599, 2635, 2668, 2676, 2682, 2689, 2748, 2765, 2858, 2902, 3061, 3086, 3115
 3131, 3139, 3146, 3159, 3166, 3171, 3198, 3205, 3209, 3222, 3908, 4037, 4411, 4765, 4767, 5646
*Surface, type=ELEMENT, name=ContactFace
_ContactFace_S3, S3
_ContactFace_S1, S1
_ContactFace_S4, S4
_ContactFace_S2, S2
*Elset, elset=_EndFaces_S3, internal
    2,    6,   19,   23,   39,   47,   65,   83,   86,   90,  100,  105,  109,  117,  120,  123
  128,  130,  132,  136,  141,  144,  147,  153,  154,  157,  158,  160,  165,  168,  175,  179
  180,  184,  187,  189,  192,  200,  241,  245,  266,  268,  269,  277,  282,  290,  292,  313
  321,  332,  334,  363,  374,  377,  380,  383,  384,  386,  389,  390,  401,  408,  411,  414
  422,  424,  428,  438,  466,  476,  489,  546,  558,  560,  569,  584,  602,  605,  629,  644
  646,  651,  666,  672,  709,  716,  729, 7104, 7110, 7114, 7115, 7117, 7119, 7122, 7129, 7136
 7141, 7149, 7153, 7159, 7160, 7166, 7178, 7180, 7182, 7185, 7191, 7193, 7196, 7197, 7200, 7205
 7212, 7221, 7225, 7233, 7237, 7242, 7246, 7252, 7266, 7291, 7295, 7298, 7301, 7312, 7314, 7329
 7330, 7332, 7334, 7337, 7340, 7350, 7351, 7368, 7370, 7373, 7383, 7400, 7438, 7443, 7451, 7470
 7478, 7479, 7493, 7532, 7535, 7574, 7600, 7608, 7625, 7639, 7643, 7644, 7646, 7647, 7784
*Elset, elset=_EndFaces_S2, internal
    9,  121,  203,  208,  218,  224,  234,  261,  263,  272,  300,  305,  312,  315,  326,  337
  345,  359,  361,  372,  398,  417,  429,  431,  443,  451,  463,  464,  471,  497,  543,  570
  601,  613,  625,  647,  668,  681,  705,  718,  737,  742, 7269, 7273, 7302, 7315, 7320, 7322
 7325, 7357, 7364, 7367, 7375, 7376, 7377, 7386, 7388, 7398, 7408, 7410, 7412, 7422, 7425, 7432
 7435, 7447, 7449, 7464, 7474, 7482, 7491, 7495, 7501, 7502, 7519, 7551, 7556, 7582, 7598, 7618
 7631, 7637, 7662, 7664, 7672, 7693, 7697, 7703, 7719, 7728, 7729, 7763, 7764, 7783, 7788
*Elset, elset=_EndFaces_S1, internal
   28,  199,  240,  248,  257,  262,  267,  286,  299,  302,  311,  328,  354,  356,  368,  369
  396,  397,  445,  468,  480,  487,  531,  562,  630,  710,  713, 7259, 7260, 7268, 7282, 7290
 7292, 7294, 7307, 7349, 7385, 7401, 7453, 7457, 7490, 7537, 7541, 7543, 7546, 7612, 7692, 7753
*Elset, elset=_EndFaces_S4, internal
   34,   37,   57,   74,  232,  236,  250,  255,  281,  330,  335,  349,  367,  373,  382,  393
  410,  427,  444,  449,  457,  537,  540,  557,  653,  655,  680,  684,  736, 7215, 7224, 7227
 7262, 7264, 7299, 7303, 7305, 7323, 7360, 7363, 7381, 7396, 7397, 7407, 7418, 7421, 7426, 7428
 7430, 7440, 7463, 7466, 7473, 7494, 7503, 7509, 7522, 7538, 7539, 7590, 7671, 7674, 7691, 7698
 7736, 7737, 7747, 7786
*Surface, type=ELEMENT, name=EndFaces
_EndFaces_S3, S3
_EndFaces_S2, S2
_EndFaces_S4, S4
_EndFaces_S1, S1
** Section: Sec_Roller_ZincSteel
*Solid Section, elset=_PickedSet6, material=Roller_E193GPa
,
*End Part
**  
**
** ASSEMBLY
**
*Assembly, name=Assembly
**  
*Instance, name=ActiveLayer-1, part=ActiveLayer
          0.,           0.,         -50.
*End Instance
**  
*Instance, name=LowerRoller-1, part=ElasticRoller_WithShoulders
          0.,         -50.,         -70.
*End Instance
**  
*Instance, name=UpperRoller-1, part=ElasticRoller_WithShoulders
          0.,        50.15,         -70.
*End Instance
**  
*Node
      1,           0.,   50.1500015,           0.
*Node
      2,           0.,         -50.,           0.
*Elset, elset=MassScale_Active_Critical, instance=ActiveLayer-1, generate
    1,  4500,     1
*Nset, nset=RP_LowerRoller
 2,
*Nset, nset=RP_UpperRoller
 1,
*Nset, nset=Sheet_Active, instance=ActiveLayer-1, generate
    1,  5796,     1
*Elset, elset=Sheet_Active, instance=ActiveLayer-1, generate
    1,  4500,     1
*Nset, nset=Sheet_All, instance=ActiveLayer-1, generate
    1,  5796,     1
*Elset, elset=Sheet_All, instance=ActiveLayer-1, generate
    1,  4500,     1
*Elset, elset=_Sheet_BackFace_S5, internal, instance=ActiveLayer-1
 3581, 3582, 3583, 3584, 3585, 3586, 3587, 3588, 3589, 3590, 3591, 3592, 3593, 3594, 3595, 3596
 3597, 3598, 3599, 3600, 3781, 3782, 3783, 3784, 3785, 3786, 3787, 3788, 3789, 3790, 3791, 3792
 3793, 3794, 3795, 3796, 3797, 3798, 3799, 3800, 3981, 3982, 3983, 3984, 3985, 3986, 3987, 3988
 3989, 3990, 3991, 3992, 3993, 3994, 3995, 3996, 3997, 3998, 3999, 4000, 4181, 4182, 4183, 4184
 4185, 4186, 4187, 4188, 4189, 4190, 4191, 4192, 4193, 4194, 4195, 4196, 4197, 4198, 4199, 4200
 4381, 4382, 4383, 4384, 4385, 4386, 4387, 4388, 4389, 4390, 4391, 4392, 4393, 4394, 4395, 4396
 4397, 4398, 4399, 4400
*Surface, type=ELEMENT, name=Sheet_BackFace
_Sheet_BackFace_S5, S5
*Elset, elset=_Sheet_FrontFace_S2, internal, instance=ActiveLayer-1, generate
 4401,  4500,     1
*Surface, type=ELEMENT, name=Sheet_FrontFace
_Sheet_FrontFace_S2, S2
** Constraint: Couple_Lower_EndFaces_to_RP
*Coupling, constraint name=Couple_Lower_EndFaces_to_RP, ref node=RP_LowerRoller, surface=LowerRoller-1.EndFaces
*Kinematic
** Constraint: Couple_Upper_EndFaces_to_RP
*Coupling, constraint name=Couple_Upper_EndFaces_to_RP, ref node=RP_UpperRoller, surface=UpperRoller-1.EndFaces
*Kinematic
*End Assembly
*Amplitude, name=Amp_Clamp_Drop, time=TOTAL TIME, definition=SMOOTH STEP
             0.,              0.,            0.05,              1.,            0.85,              1.
*Amplitude, name=Amp_Rolling_Spin, definition=SMOOTH STEP
             0.,              0.,            0.05,              1.,            0.75,              1.
** 
** MATERIALS
** 
*Material, name=ActiveLayer_Porous_Calibratable
*Cap Plasticity
4.,  65.,  0.8,  18., 0.02,   1.
*Cap Hardening
  18.,   0.
 18.6, 0.05
 19.8,  0.1
 21.6, 0.15
  24., 0.18
  27.,  0.2
  33., 0.22
  42., 0.24
  57., 0.26
  81., 0.28
 117.,  0.3
 144., 0.31
 180., 0.32
 222., 0.33
*Density
 2.55e-09,
*Elastic
6500., 0.01
*Material, name=Roller_E193GPa
*Density
 7.93e-09,
*Elastic
193000., 0.2
** 
** INTERACTION PROPERTIES
** 
*Surface Interaction, name=Contact_BottomRoller_Active_mu0p1
*Friction
 0.1,
*Surface Behavior, pressure-overclosure=HARD
*Surface Interaction, name=Contact_TopRoller_Active_mu0p1
*Friction
 0.1,
*Surface Behavior, pressure-overclosure=HARD
** 
** BOUNDARY CONDITIONS
** 
** Name: BC_Lower_RP_Support Type: 位移/转角
*Boundary
RP_LowerRoller, 1, 1
RP_LowerRoller, 2, 2
RP_LowerRoller, 3, 3
RP_LowerRoller, 4, 4
RP_LowerRoller, 5, 5
** Name: BC_Upper_RP_LateralSupport Type: 位移/转角
*Boundary
RP_UpperRoller, 1, 1
RP_UpperRoller, 3, 3
RP_UpperRoller, 4, 4
RP_UpperRoller, 5, 5
** ----------------------------------------------------------------
** 
** STEP: Clamp_Down
** 
*Step, name=Clamp_Down, nlgeom=YES
*Dynamic, Explicit
, 0.05
*Bulk Viscosity
0.12, 1.2
** Mass Scaling: Semi-Automatic
**               Whole Model
*Fixed Mass Scaling, dt=5e-06, type=below min
** 
** BOUNDARY CONDITIONS
** 
** Name: BC_Lower_NoSpin_ClampHold Type: 位移/转角
*Boundary
RP_LowerRoller, 6, 6
** Name: BC_Upper_NoSpin_ClampHold Type: 位移/转角
*Boundary
RP_UpperRoller, 6, 6
** Name: BC_Upper_RP_Drop Type: 位移/转角
*Boundary, amplitude=Amp_Clamp_Drop
RP_UpperRoller, 2, 2, -0.015
** 
** LOADS
** 
** Name: Load_Back_Tension   Type: Surface traction
*Dsload, follower=NO
Sheet_BackFace, TRVEC, 0.01, -1., 0., 0.
** Name: Load_Front_Tension   Type: Surface traction
*Dsload, follower=NO
Sheet_FrontFace, TRVEC, 0.01, 1., 0., 0.
** 
** INTERACTIONS
** 
** Interaction: BottomRoller_to_ActiveFilm
*Contact Pair, op=ADD, interaction=Contact_BottomRoller_Active_mu0p1, mechanical constraint=PENALTY, cpset=BottomRoller_to_ActiveFilm
LowerRoller-1.ContactFace, ActiveLayer-1.Bottom
** Interaction: TopRoller_to_ActiveFilm
*Contact Pair, op=ADD, interaction=Contact_TopRoller_Active_mu0p1, mechanical constraint=PENALTY, cpset=TopRoller_to_ActiveFilm
UpperRoller-1.ContactFace, ActiveLayer-1.Top
** 
** OUTPUT REQUESTS
** 
*Restart, write, number interval=1, time marks=NO
** 
** FIELD OUTPUT: F_Sheet_StressStrain
** 
*Output, field, number interval=80
*Node Output, nset=Sheet_All, variable=PRESELECT
*Element Output, elset=Sheet_All, directions=YES
LE, PE, PEEQ, PRESS, S
*Contact Output, variable=PRESELECT
** 
** HISTORY OUTPUT: H-Output-1
** 
*Output, history, variable=PRESELECT
** 
** HISTORY OUTPUT: H_Energy
** 
*Output, history, time interval=0.0002
*Energy Output
ALLAE, ALLIE, ALLKE, ALLMW, ALLPD, ALLSE, ALLWK
** 
** HISTORY OUTPUT: H_LowerRoller_RP
** 
*Node Output, nset=RP_LowerRoller
RF1, RF2, RF3, RM3, U2, UR3, VR3
** 
** HISTORY OUTPUT: H_UpperRoller_RP
** 
*Node Output, nset=RP_UpperRoller
RF1, RF2, RF3, RM3, U2, UR3, VR3
*End Step
** ----------------------------------------------------------------
** 
** STEP: Hold_Clamp
** 
*Step, name=Hold_Clamp, nlgeom=YES
*Dynamic, Explicit
, 0.05
*Bulk Viscosity
0.12, 1.2
** Mass Scaling: Semi-Automatic
**               Whole Model
*Fixed Mass Scaling, dt=5e-06, type=below min
** 
** OUTPUT REQUESTS
** 
*Restart, write, number interval=1, time marks=NO
** 
** FIELD OUTPUT: F_Sheet_StressStrain
** 
*Output, field, number interval=80
*Node Output, nset=Sheet_All, variable=PRESELECT
*Element Output, elset=Sheet_All, directions=YES
LE, PE, PEEQ, PRESS, S
*Contact Output, variable=PRESELECT
** 
** HISTORY OUTPUT: H-Output-1
** 
*Output, history, variable=PRESELECT
** 
** HISTORY OUTPUT: H_Energy
** 
*Output, history, time interval=0.0002
*Energy Output
ALLAE, ALLIE, ALLKE, ALLMW, ALLPD, ALLSE, ALLWK
** 
** HISTORY OUTPUT: H_LowerRoller_RP
** 
*Node Output, nset=RP_LowerRoller
RF1, RF2, RF3, RM3, U2, UR3, VR3
** 
** HISTORY OUTPUT: H_UpperRoller_RP
** 
*Node Output, nset=RP_UpperRoller
RF1, RF2, RF3, RM3, U2, UR3, VR3
*End Step
** ----------------------------------------------------------------
** 
** STEP: Rolling
** 
*Step, name=Rolling, nlgeom=YES
*Dynamic, Explicit
, 0.75
*Bulk Viscosity
0.12, 1.2
** Mass Scaling: Semi-Automatic
**               Whole Model
*Fixed Mass Scaling, dt=5e-06, type=below min
** 
** BOUNDARY CONDITIONS
** 
** Name: BC_Lower_NoSpin_ClampHold Type: 位移/转角
*Boundary, op=NEW
** Name: BC_Lower_RP_Support Type: 位移/转角
*Boundary, op=NEW
RP_LowerRoller, 1, 1
RP_LowerRoller, 2, 2
RP_LowerRoller, 3, 3
RP_LowerRoller, 4, 4
RP_LowerRoller, 5, 5
** Name: BC_Lower_Rotation Type: 速度/角速度
*Boundary, op=NEW, amplitude=Amp_Rolling_Spin, type=VELOCITY
RP_LowerRoller, 6, 6, -0.166667
** Name: BC_Upper_NoSpin_ClampHold Type: 位移/转角
*Boundary, op=NEW
** Name: BC_Upper_RP_Drop Type: 位移/转角
*Boundary, op=NEW, amplitude=Amp_Clamp_Drop
RP_UpperRoller, 2, 2, -0.015
** Name: BC_Upper_RP_LateralSupport Type: 位移/转角
*Boundary, op=NEW
RP_UpperRoller, 1, 1
RP_UpperRoller, 3, 3
RP_UpperRoller, 4, 4
RP_UpperRoller, 5, 5
** Name: BC_Upper_Rotation Type: 速度/角速度
*Boundary, op=NEW, amplitude=Amp_Rolling_Spin, type=VELOCITY
RP_UpperRoller, 6, 6, 0.266667
** 
** OUTPUT REQUESTS
** 
*Restart, write, number interval=1, time marks=NO
** 
** FIELD OUTPUT: F_Sheet_StressStrain
** 
*Output, field, number interval=80
*Node Output, nset=Sheet_All, variable=PRESELECT
*Element Output, elset=Sheet_All, directions=YES
LE, PE, PEEQ, PRESS, S
*Contact Output, variable=PRESELECT
** 
** HISTORY OUTPUT: H-Output-1
** 
*Output, history, variable=PRESELECT
** 
** HISTORY OUTPUT: H_Energy
** 
*Output, history, time interval=0.003
*Energy Output
ALLAE, ALLIE, ALLKE, ALLMW, ALLPD, ALLSE, ALLWK
** 
** HISTORY OUTPUT: H_LowerRoller_RP
** 
*Node Output, nset=RP_LowerRoller
RF1, RF2, RF3, RM3, U2, UR3, VR3
** 
** HISTORY OUTPUT: H_UpperRoller_RP
** 
*Node Output, nset=RP_UpperRoller
RF1, RF2, RF3, RM3, U2, UR3, VR3
*End Step
