*Heading
** Job name: SelfSupport_DPC_LocalStaticPress_20pct_Ch3_1 Model name: SelfSupport_DPC_LocalStaticPress_20pct_Ch3_1
** 单层干法自支撑电极膜局部静态法向压下模型；无集流体、无转动、无进料、无显式动力学。
*Part, name=Film
*Node
1, -5, -0.075, -10
2, -5, -0.075, -9
3, -5, -0.075, -8
4, -5, -0.075, -7
5, -5, -0.075, -6
6, -5, -0.075, -5
7, -5, -0.075, -4
8, -5, -0.075, -3
9, -5, -0.075, -2
10, -5, -0.075, -1
11, -5, -0.075, 0
12, -5, -0.075, 1
13, -5, -0.075, 2
14, -5, -0.075, 3
15, -5, -0.075, 4
16, -5, -0.075, 5
17, -5, -0.075, 6
18, -5, -0.075, 7
19, -5, -0.075, 8
20, -5, -0.075, 9
** ... 14596 like lines cut
*Element, type=C3D8R, elset=FILM_ALL_ELEMS
1, 1, 127, 148, 22, 2, 128, 149, 23
2, 2, 128, 149, 23, 3, 129, 150, 24
3, 3, 129, 150, 24, 4, 130, 151, 25
4, 4, 130, 151, 25, 5, 131, 152, 26
5, 5, 131, 152, 26, 6, 132, 153, 27
6, 6, 132, 153, 27, 7, 133, 154, 28
7, 7, 133, 154, 28, 8, 134, 155, 29
8, 8, 134, 155, 29, 9, 135, 156, 30
9, 9, 135, 156, 30, 10, 136, 157, 31
10, 10, 136, 157, 31, 11, 137, 158, 32
11, 11, 137, 158, 32, 12, 138, 159, 33
12, 12, 138, 159, 33, 13, 139, 160, 34
13, 13, 139, 160, 34, 14, 140, 161, 35
14, 14, 140, 161, 35, 15, 141, 162, 36
15, 15, 141, 162, 36, 16, 142, 163, 37
16, 16, 142, 163, 37, 17, 143, 164, 38
17, 17, 143, 164, 38, 18, 144, 165, 39
18, 18, 144, 165, 39, 19, 145, 166, 40
19, 19, 145, 166, 40, 20, 146, 167, 41
20, 20, 146, 167, 41, 21, 147, 168, 42
** ... 11480 like lines cut
*Nset, nset=TOP_NODES
106, 107, 108, 109, 110, 111, 112, 113, 114, 115, 116, 117, 118, 119, 120, 121
122, 123, 124, 125, 126, 232, 233, 234, 235, 236, 237, 238, 239, 240, 241, 242
243, 244, 245, 246, 247, 248, 249, 250, 251, 252, 358, 359, 360, 361, 362, 363
364, 365, 366, 367, 368, 369, 370, 371, 372, 373, 374, 375, 376, 377, 378, 484
485, 486, 487, 488, 489, 490, 491, 492, 493, 494, 495, 496, 497, 498, 499, 500
501, 502, 503, 504, 610, 611, 612, 613, 614, 615, 616, 617, 618, 619, 620, 621
622, 623, 624, 625, 626, 627, 628, 629, 630, 736, 737, 738, 739, 740, 741, 742
743, 744, 745, 746, 747, 748, 749, 750, 751, 752, 753, 754, 755, 756, 862, 863
864, 865, 866, 867, 868, 869, 870, 871, 872, 873, 874, 875, 876, 877, 878, 879
880, 881, 882, 988, 989, 990, 991, 992, 993, 994, 995, 996, 997, 998, 999, 1000
1001, 1002, 1003, 1004, 1005, 1006, 1007, 1008, 1114, 1115, 1116, 1117, 1118, 1119, 1120, 1121
1122, 1123, 1124, 1125, 1126, 1127, 1128, 1129, 1130, 1131, 1132, 1133, 1134, 1240, 1241, 1242
1243, 1244, 1245, 1246, 1247, 1248, 1249, 1250, 1251, 1252, 1253, 1254, 1255, 1256, 1257, 1258
1259, 1260, 1366, 1367, 1368, 1369, 1370, 1371, 1372, 1373, 1374, 1375, 1376, 1377, 1378, 1379
1380, 1381, 1382, 1383, 1384, 1385, 1386, 1492, 1493, 1494, 1495, 1496, 1497, 1498, 1499, 1500
1501, 1502, 1503, 1504, 1505, 1506, 1507, 1508, 1509, 1510, 1511, 1512, 1618, 1619, 1620, 1621
1622, 1623, 1624, 1625, 1626, 1627, 1628, 1629, 1630, 1631, 1632, 1633, 1634, 1635, 1636, 1637
1638, 1744, 1745, 1746, 1747, 1748, 1749, 1750, 1751, 1752, 1753, 1754, 1755, 1756, 1757, 1758
1759, 1760, 1761, 1762, 1763, 1764, 1870, 1871, 1872, 1873, 1874, 1875, 1876, 1877, 1878, 1879
1880, 1881, 1882, 1883, 1884, 1885, 1886, 1887, 1888, 1889, 1890, 1996, 1997, 1998, 1999, 2000
** ... 133 like lines cut
*Nset, nset=BOTTOM_NODES
1, 2, 3, 4, 5, 6, 7, 8, 9, 10, 11, 12, 13, 14, 15, 16
17, 18, 19, 20, 21, 127, 128, 129, 130, 131, 132, 133, 134, 135, 136, 137
138, 139, 140, 141, 142, 143, 144, 145, 146, 147, 253, 254, 255, 256, 257, 258
259, 260, 261, 262, 263, 264, 265, 266, 267, 268, 269, 270, 271, 272, 273, 379
380, 381, 382, 383, 384, 385, 386, 387, 388, 389, 390, 391, 392, 393, 394, 395
396, 397, 398, 399, 505, 506, 507, 508, 509, 510, 511, 512, 513, 514, 515, 516
517, 518, 519, 520, 521, 522, 523, 524, 525, 631, 632, 633, 634, 635, 636, 637
638, 639, 640, 641, 642, 643, 644, 645, 646, 647, 648, 649, 650, 651, 757, 758
759, 760, 761, 762, 763, 764, 765, 766, 767, 768, 769, 770, 771, 772, 773, 774
775, 776, 777, 883, 884, 885, 886, 887, 888, 889, 890, 891, 892, 893, 894, 895
896, 897, 898, 899, 900, 901, 902, 903, 1009, 1010, 1011, 1012, 1013, 1014, 1015, 1016
1017, 1018, 1019, 1020, 1021, 1022, 1023, 1024, 1025, 1026, 1027, 1028, 1029, 1135, 1136, 1137
1138, 1139, 1140, 1141, 1142, 1143, 1144, 1145, 1146, 1147, 1148, 1149, 1150, 1151, 1152, 1153
1154, 1155, 1261, 1262, 1263, 1264, 1265, 1266, 1267, 1268, 1269, 1270, 1271, 1272, 1273, 1274
1275, 1276, 1277, 1278, 1279, 1280, 1281, 1387, 1388, 1389, 1390, 1391, 1392, 1393, 1394, 1395
1396, 1397, 1398, 1399, 1400, 1401, 1402, 1403, 1404, 1405, 1406, 1407, 1513, 1514, 1515, 1516
1517, 1518, 1519, 1520, 1521, 1522, 1523, 1524, 1525, 1526, 1527, 1528, 1529, 1530, 1531, 1532
1533, 1639, 1640, 1641, 1642, 1643, 1644, 1645, 1646, 1647, 1648, 1649, 1650, 1651, 1652, 1653
1654, 1655, 1656, 1657, 1658, 1659, 1765, 1766, 1767, 1768, 1769, 1770, 1771, 1772, 1773, 1774
1775, 1776, 1777, 1778, 1779, 1780, 1781, 1782, 1783, 1784, 1785, 1891, 1892, 1893, 1894, 1895
** ... 133 like lines cut
*Nset, nset=PIN_X
11
*Nset, nset=PIN_Z_A
11
*Nset, nset=PIN_Z_B
14501
*Elset, elset=FILM_ALL_ELEMS
1, 2, 3, 4, 5, 6, 7, 8, 9, 10, 11, 12, 13, 14, 15, 16
17, 18, 19, 20, 21, 22, 23, 24, 25, 26, 27, 28, 29, 30, 31, 32
33, 34, 35, 36, 37, 38, 39, 40, 41, 42, 43, 44, 45, 46, 47, 48
49, 50, 51, 52, 53, 54, 55, 56, 57, 58, 59, 60, 61, 62, 63, 64
65, 66, 67, 68, 69, 70, 71, 72, 73, 74, 75, 76, 77, 78, 79, 80
81, 82, 83, 84, 85, 86, 87, 88, 89, 90, 91, 92, 93, 94, 95, 96
97, 98, 99, 100, 101, 102, 103, 104, 105, 106, 107, 108, 109, 110, 111, 112
113, 114, 115, 116, 117, 118, 119, 120, 121, 122, 123, 124, 125, 126, 127, 128
129, 130, 131, 132, 133, 134, 135, 136, 137, 138, 139, 140, 141, 142, 143, 144
145, 146, 147, 148, 149, 150, 151, 152, 153, 154, 155, 156, 157, 158, 159, 160
161, 162, 163, 164, 165, 166, 167, 168, 169, 170, 171, 172, 173, 174, 175, 176
177, 178, 179, 180, 181, 182, 183, 184, 185, 186, 187, 188, 189, 190, 191, 192
193, 194, 195, 196, 197, 198, 199, 200, 201, 202, 203, 204, 205, 206, 207, 208
209, 210, 211, 212, 213, 214, 215, 216, 217, 218, 219, 220, 221, 222, 223, 224
225, 226, 227, 228, 229, 230, 231, 232, 233, 234, 235, 236, 237, 238, 239, 240
241, 242, 243, 244, 245, 246, 247, 248, 249, 250, 251, 252, 253, 254, 255, 256
257, 258, 259, 260, 261, 262, 263, 264, 265, 266, 267, 268, 269, 270, 271, 272
273, 274, 275, 276, 277, 278, 279, 280, 281, 282, 283, 284, 285, 286, 287, 288
289, 290, 291, 292, 293, 294, 295, 296, 297, 298, 299, 300, 301, 302, 303, 304
305, 306, 307, 308, 309, 310, 311, 312, 313, 314, 315, 316, 317, 318, 319, 320
** ... 699 like lines cut
*Elset, elset=FILM_TOP_FACE_ELEMS
81, 82, 83, 84, 85, 86, 87, 88, 89, 90, 91, 92, 93, 94, 95, 96
97, 98, 99, 100, 181, 182, 183, 184, 185, 186, 187, 188, 189, 190, 191, 192
193, 194, 195, 196, 197, 198, 199, 200, 281, 282, 283, 284, 285, 286, 287, 288
289, 290, 291, 292, 293, 294, 295, 296, 297, 298, 299, 300, 381, 382, 383, 384
385, 386, 387, 388, 389, 390, 391, 392, 393, 394, 395, 396, 397, 398, 399, 400
481, 482, 483, 484, 485, 486, 487, 488, 489, 490, 491, 492, 493, 494, 495, 496
497, 498, 499, 500, 581, 582, 583, 584, 585, 586, 587, 588, 589, 590, 591, 592
593, 594, 595, 596, 597, 598, 599, 600, 681, 682, 683, 684, 685, 686, 687, 688
689, 690, 691, 692, 693, 694, 695, 696, 697, 698, 699, 700, 781, 782, 783, 784
785, 786, 787, 788, 789, 790, 791, 792, 793, 794, 795, 796, 797, 798, 799, 800
881, 882, 883, 884, 885, 886, 887, 888, 889, 890, 891, 892, 893, 894, 895, 896
897, 898, 899, 900, 981, 982, 983, 984, 985, 986, 987, 988, 989, 990, 991, 992
993, 994, 995, 996, 997, 998, 999, 1000, 1081, 1082, 1083, 1084, 1085, 1086, 1087, 1088
1089, 1090, 1091, 1092, 1093, 1094, 1095, 1096, 1097, 1098, 1099, 1100, 1181, 1182, 1183, 1184
1185, 1186, 1187, 1188, 1189, 1190, 1191, 1192, 1193, 1194, 1195, 1196, 1197, 1198, 1199, 1200
1281, 1282, 1283, 1284, 1285, 1286, 1287, 1288, 1289, 1290, 1291, 1292, 1293, 1294, 1295, 1296
1297, 1298, 1299, 1300, 1381, 1382, 1383, 1384, 1385, 1386, 1387, 1388, 1389, 1390, 1391, 1392
1393, 1394, 1395, 1396, 1397, 1398, 1399, 1400, 1481, 1482, 1483, 1484, 1485, 1486, 1487, 1488
1489, 1490, 1491, 1492, 1493, 1494, 1495, 1496, 1497, 1498, 1499, 1500, 1581, 1582, 1583, 1584
1585, 1586, 1587, 1588, 1589, 1590, 1591, 1592, 1593, 1594, 1595, 1596, 1597, 1598, 1599, 1600
** ... 124 like lines cut
*Elset, elset=FILM_BOTTOM_FACE_ELEMS
1, 2, 3, 4, 5, 6, 7, 8, 9, 10, 11, 12, 13, 14, 15, 16
17, 18, 19, 20, 101, 102, 103, 104, 105, 106, 107, 108, 109, 110, 111, 112
113, 114, 115, 116, 117, 118, 119, 120, 201, 202, 203, 204, 205, 206, 207, 208
209, 210, 211, 212, 213, 214, 215, 216, 217, 218, 219, 220, 301, 302, 303, 304
305, 306, 307, 308, 309, 310, 311, 312, 313, 314, 315, 316, 317, 318, 319, 320
401, 402, 403, 404, 405, 406, 407, 408, 409, 410, 411, 412, 413, 414, 415, 416
417, 418, 419, 420, 501, 502, 503, 504, 505, 506, 507, 508, 509, 510, 511, 512
513, 514, 515, 516, 517, 518, 519, 520, 601, 602, 603, 604, 605, 606, 607, 608
609, 610, 611, 612, 613, 614, 615, 616, 617, 618, 619, 620, 701, 702, 703, 704
705, 706, 707, 708, 709, 710, 711, 712, 713, 714, 715, 716, 717, 718, 719, 720
801, 802, 803, 804, 805, 806, 807, 808, 809, 810, 811, 812, 813, 814, 815, 816
817, 818, 819, 820, 901, 902, 903, 904, 905, 906, 907, 908, 909, 910, 911, 912
913, 914, 915, 916, 917, 918, 919, 920, 1001, 1002, 1003, 1004, 1005, 1006, 1007, 1008
1009, 1010, 1011, 1012, 1013, 1014, 1015, 1016, 1017, 1018, 1019, 1020, 1101, 1102, 1103, 1104
1105, 1106, 1107, 1108, 1109, 1110, 1111, 1112, 1113, 1114, 1115, 1116, 1117, 1118, 1119, 1120
1201, 1202, 1203, 1204, 1205, 1206, 1207, 1208, 1209, 1210, 1211, 1212, 1213, 1214, 1215, 1216
1217, 1218, 1219, 1220, 1301, 1302, 1303, 1304, 1305, 1306, 1307, 1308, 1309, 1310, 1311, 1312
1313, 1314, 1315, 1316, 1317, 1318, 1319, 1320, 1401, 1402, 1403, 1404, 1405, 1406, 1407, 1408
1409, 1410, 1411, 1412, 1413, 1414, 1415, 1416, 1417, 1418, 1419, 1420, 1501, 1502, 1503, 1504
1505, 1506, 1507, 1508, 1509, 1510, 1511, 1512, 1513, 1514, 1515, 1516, 1517, 1518, 1519, 1520
** ... 124 like lines cut
*Solid Section, elset=FILM_ALL_ELEMS, material=DrySelfSupportFilm_DPC
,
*End Part
*Part, name=TopRoller
*Node
1, -6, 0.115001777936, -12
2, -6, 0.115001777936, -11.25
3, -6, 0.115001777936, -10.5
4, -6, 0.115001777936, -9.75
5, -6, 0.115001777936, -9
6, -6, 0.115001777936, -8.25
7, -6, 0.115001777936, -7.5
8, -6, 0.115001777936, -6.75
9, -6, 0.115001777936, -6
10, -6, 0.115001777936, -5.25
11, -6, 0.115001777936, -4.5
12, -6, 0.115001777936, -3.75
13, -6, 0.115001777936, -3
14, -6, 0.115001777936, -2.25
15, -6, 0.115001777936, -1.5
16, -6, 0.115001777936, -0.75
17, -6, 0.115001777936, 0
18, -6, 0.115001777936, 0.75
19, -6, 0.115001777936, 1.5
20, -6, 0.115001777936, 2.25
** ... 5294 like lines cut
*Element, type=R3D4, elset=TOPROLLER_ALL_ELEMS
1, 1, 34, 35, 2
2, 2, 35, 36, 3
3, 3, 36, 37, 4
4, 4, 37, 38, 5
5, 5, 38, 39, 6
6, 6, 39, 40, 7
7, 7, 40, 41, 8
8, 8, 41, 42, 9
9, 9, 42, 43, 10
10, 10, 43, 44, 11
11, 11, 44, 45, 12
12, 12, 45, 46, 13
13, 13, 46, 47, 14
14, 14, 47, 48, 15
15, 15, 48, 49, 16
16, 16, 49, 50, 17
17, 17, 50, 51, 18
18, 18, 51, 52, 19
19, 19, 52, 53, 20
20, 20, 53, 54, 21
** ... 5100 like lines cut
*Nset, nset=TOPROLLER_RP
5314
*Elset, elset=TOPROLLER_ALL_ELEMS
1, 2, 3, 4, 5, 6, 7, 8, 9, 10, 11, 12, 13, 14, 15, 16
17, 18, 19, 20, 21, 22, 23, 24, 25, 26, 27, 28, 29, 30, 31, 32
33, 34, 35, 36, 37, 38, 39, 40, 41, 42, 43, 44, 45, 46, 47, 48
49, 50, 51, 52, 53, 54, 55, 56, 57, 58, 59, 60, 61, 62, 63, 64
65, 66, 67, 68, 69, 70, 71, 72, 73, 74, 75, 76, 77, 78, 79, 80
81, 82, 83, 84, 85, 86, 87, 88, 89, 90, 91, 92, 93, 94, 95, 96
97, 98, 99, 100, 101, 102, 103, 104, 105, 106, 107, 108, 109, 110, 111, 112
113, 114, 115, 116, 117, 118, 119, 120, 121, 122, 123, 124, 125, 126, 127, 128
129, 130, 131, 132, 133, 134, 135, 136, 137, 138, 139, 140, 141, 142, 143, 144
145, 146, 147, 148, 149, 150, 151, 152, 153, 154, 155, 156, 157, 158, 159, 160
161, 162, 163, 164, 165, 166, 167, 168, 169, 170, 171, 172, 173, 174, 175, 176
177, 178, 179, 180, 181, 182, 183, 184, 185, 186, 187, 188, 189, 190, 191, 192
193, 194, 195, 196, 197, 198, 199, 200, 201, 202, 203, 204, 205, 206, 207, 208
209, 210, 211, 212, 213, 214, 215, 216, 217, 218, 219, 220, 221, 222, 223, 224
225, 226, 227, 228, 229, 230, 231, 232, 233, 234, 235, 236, 237, 238, 239, 240
241, 242, 243, 244, 245, 246, 247, 248, 249, 250, 251, 252, 253, 254, 255, 256
257, 258, 259, 260, 261, 262, 263, 264, 265, 266, 267, 268, 269, 270, 271, 272
273, 274, 275, 276, 277, 278, 279, 280, 281, 282, 283, 284, 285, 286, 287, 288
289, 290, 291, 292, 293, 294, 295, 296, 297, 298, 299, 300, 301, 302, 303, 304
305, 306, 307, 308, 309, 310, 311, 312, 313, 314, 315, 316, 317, 318, 319, 320
** ... 300 like lines cut
*End Part
*Part, name=BottomRoller
*Node
1, -6, -0.115001777936, -12
2, -6, -0.115001777936, -11.25
3, -6, -0.115001777936, -10.5
4, -6, -0.115001777936, -9.75
5, -6, -0.115001777936, -9
6, -6, -0.115001777936, -8.25
7, -6, -0.115001777936, -7.5
8, -6, -0.115001777936, -6.75
9, -6, -0.115001777936, -6
10, -6, -0.115001777936, -5.25
11, -6, -0.115001777936, -4.5
12, -6, -0.115001777936, -3.75
13, -6, -0.115001777936, -3
14, -6, -0.115001777936, -2.25
15, -6, -0.115001777936, -1.5
16, -6, -0.115001777936, -0.75
17, -6, -0.115001777936, 0
18, -6, -0.115001777936, 0.75
19, -6, -0.115001777936, 1.5
20, -6, -0.115001777936, 2.25
** ... 5294 like lines cut
*Element, type=R3D4, elset=BOTTOMROLLER_ALL_ELEMS
1, 1, 2, 35, 34
2, 2, 3, 36, 35
3, 3, 4, 37, 36
4, 4, 5, 38, 37
5, 5, 6, 39, 38
6, 6, 7, 40, 39
7, 7, 8, 41, 40
8, 8, 9, 42, 41
9, 9, 10, 43, 42
10, 10, 11, 44, 43
11, 11, 12, 45, 44
12, 12, 13, 46, 45
13, 13, 14, 47, 46
14, 14, 15, 48, 47
15, 15, 16, 49, 48
16, 16, 17, 50, 49
17, 17, 18, 51, 50
18, 18, 19, 52, 51
19, 19, 20, 53, 52
20, 20, 21, 54, 53
** ... 5100 like lines cut
*Nset, nset=BOTTOMROLLER_RP
5314
*Elset, elset=BOTTOMROLLER_ALL_ELEMS
1, 2, 3, 4, 5, 6, 7, 8, 9, 10, 11, 12, 13, 14, 15, 16
17, 18, 19, 20, 21, 22, 23, 24, 25, 26, 27, 28, 29, 30, 31, 32
33, 34, 35, 36, 37, 38, 39, 40, 41, 42, 43, 44, 45, 46, 47, 48
49, 50, 51, 52, 53, 54, 55, 56, 57, 58, 59, 60, 61, 62, 63, 64
65, 66, 67, 68, 69, 70, 71, 72, 73, 74, 75, 76, 77, 78, 79, 80
81, 82, 83, 84, 85, 86, 87, 88, 89, 90, 91, 92, 93, 94, 95, 96
97, 98, 99, 100, 101, 102, 103, 104, 105, 106, 107, 108, 109, 110, 111, 112
113, 114, 115, 116, 117, 118, 119, 120, 121, 122, 123, 124, 125, 126, 127, 128
129, 130, 131, 132, 133, 134, 135, 136, 137, 138, 139, 140, 141, 142, 143, 144
145, 146, 147, 148, 149, 150, 151, 152, 153, 154, 155, 156, 157, 158, 159, 160
161, 162, 163, 164, 165, 166, 167, 168, 169, 170, 171, 172, 173, 174, 175, 176
177, 178, 179, 180, 181, 182, 183, 184, 185, 186, 187, 188, 189, 190, 191, 192
193, 194, 195, 196, 197, 198, 199, 200, 201, 202, 203, 204, 205, 206, 207, 208
209, 210, 211, 212, 213, 214, 215, 216, 217, 218, 219, 220, 221, 222, 223, 224
225, 226, 227, 228, 229, 230, 231, 232, 233, 234, 235, 236, 237, 238, 239, 240
241, 242, 243, 244, 245, 246, 247, 248, 249, 250, 251, 252, 253, 254, 255, 256
257, 258, 259, 260, 261, 262, 263, 264, 265, 266, 267, 268, 269, 270, 271, 272
273, 274, 275, 276, 277, 278, 279, 280, 281, 282, 283, 284, 285, 286, 287, 288
289, 290, 291, 292, 293, 294, 295, 296, 297, 298, 299, 300, 301, 302, 303, 304
305, 306, 307, 308, 309, 310, 311, 312, 313, 314, 315, 316, 317, 318, 319, 320
** ... 300 like lines cut
*End Part
**
** ASSEMBLY
**
*Assembly, name=Assembly
*Instance, name=Film-1, part=Film
*End Instance
*Instance, name=TopRoller-1, part=TopRoller
*End Instance
*Instance, name=BottomRoller-1, part=BottomRoller
*End Instance
*Nset, nset=FILM_TOP_NODES, instance=Film-1
106, 107, 108, 109, 110, 111, 112, 113, 114, 115, 116, 117, 118, 119, 120, 121
122, 123, 124, 125, 126, 232, 233, 234, 235, 236, 237, 238, 239, 240, 241, 242
243, 244, 245, 246, 247, 248, 249, 250, 251, 252, 358, 359, 360, 361, 362, 363
364, 365, 366, 367, 368, 369, 370, 371, 372, 373, 374, 375, 376, 377, 378, 484
485, 486, 487, 488, 489, 490, 491, 492, 493, 494, 495, 496, 497, 498, 499, 500
501, 502, 503, 504, 610, 611, 612, 613, 614, 615, 616, 617, 618, 619, 620, 621
622, 623, 624, 625, 626, 627, 628, 629, 630, 736, 737, 738, 739, 740, 741, 742
743, 744, 745, 746, 747, 748, 749, 750, 751, 752, 753, 754, 755, 756, 862, 863
864, 865, 866, 867, 868, 869, 870, 871, 872, 873, 874, 875, 876, 877, 878, 879
880, 881, 882, 988, 989, 990, 991, 992, 993, 994, 995, 996, 997, 998, 999, 1000
1001, 1002, 1003, 1004, 1005, 1006, 1007, 1008, 1114, 1115, 1116, 1117, 1118, 1119, 1120, 1121
1122, 1123, 1124, 1125, 1126, 1127, 1128, 1129, 1130, 1131, 1132, 1133, 1134, 1240, 1241, 1242
1243, 1244, 1245, 1246, 1247, 1248, 1249, 1250, 1251, 1252, 1253, 1254, 1255, 1256, 1257, 1258
1259, 1260, 1366, 1367, 1368, 1369, 1370, 1371, 1372, 1373, 1374, 1375, 1376, 1377, 1378, 1379
1380, 1381, 1382, 1383, 1384, 1385, 1386, 1492, 1493, 1494, 1495, 1496, 1497, 1498, 1499, 1500
1501, 1502, 1503, 1504, 1505, 1506, 1507, 1508, 1509, 1510, 1511, 1512, 1618, 1619, 1620, 1621
1622, 1623, 1624, 1625, 1626, 1627, 1628, 1629, 1630, 1631, 1632, 1633, 1634, 1635, 1636, 1637
1638, 1744, 1745, 1746, 1747, 1748, 1749, 1750, 1751, 1752, 1753, 1754, 1755, 1756, 1757, 1758
1759, 1760, 1761, 1762, 1763, 1764, 1870, 1871, 1872, 1873, 1874, 1875, 1876, 1877, 1878, 1879
1880, 1881, 1882, 1883, 1884, 1885, 1886, 1887, 1888, 1889, 1890, 1996, 1997, 1998, 1999, 2000
** ... 133 like lines cut
*Nset, nset=FILM_BOTTOM_NODES, instance=Film-1
1, 2, 3, 4, 5, 6, 7, 8, 9, 10, 11, 12, 13, 14, 15, 16
17, 18, 19, 20, 21, 127, 128, 129, 130, 131, 132, 133, 134, 135, 136, 137
138, 139, 140, 141, 142, 143, 144, 145, 146, 147, 253, 254, 255, 256, 257, 258
259, 260, 261, 262, 263, 264, 265, 266, 267, 268, 269, 270, 271, 272, 273, 379
380, 381, 382, 383, 384, 385, 386, 387, 388, 389, 390, 391, 392, 393, 394, 395
396, 397, 398, 399, 505, 506, 507, 508, 509, 510, 511, 512, 513, 514, 515, 516
517, 518, 519, 520, 521, 522, 523, 524, 525, 631, 632, 633, 634, 635, 636, 637
638, 639, 640, 641, 642, 643, 644, 645, 646, 647, 648, 649, 650, 651, 757, 758
759, 760, 761, 762, 763, 764, 765, 766, 767, 768, 769, 770, 771, 772, 773, 774
775, 776, 777, 883, 884, 885, 886, 887, 888, 889, 890, 891, 892, 893, 894, 895
896, 897, 898, 899, 900, 901, 902, 903, 1009, 1010, 1011, 1012, 1013, 1014, 1015, 1016
1017, 1018, 1019, 1020, 1021, 1022, 1023, 1024, 1025, 1026, 1027, 1028, 1029, 1135, 1136, 1137
1138, 1139, 1140, 1141, 1142, 1143, 1144, 1145, 1146, 1147, 1148, 1149, 1150, 1151, 1152, 1153
1154, 1155, 1261, 1262, 1263, 1264, 1265, 1266, 1267, 1268, 1269, 1270, 1271, 1272, 1273, 1274
1275, 1276, 1277, 1278, 1279, 1280, 1281, 1387, 1388, 1389, 1390, 1391, 1392, 1393, 1394, 1395
1396, 1397, 1398, 1399, 1400, 1401, 1402, 1403, 1404, 1405, 1406, 1407, 1513, 1514, 1515, 1516
1517, 1518, 1519, 1520, 1521, 1522, 1523, 1524, 1525, 1526, 1527, 1528, 1529, 1530, 1531, 1532
1533, 1639, 1640, 1641, 1642, 1643, 1644, 1645, 1646, 1647, 1648, 1649, 1650, 1651, 1652, 1653
1654, 1655, 1656, 1657, 1658, 1659, 1765, 1766, 1767, 1768, 1769, 1770, 1771, 1772, 1773, 1774
1775, 1776, 1777, 1778, 1779, 1780, 1781, 1782, 1783, 1784, 1785, 1891, 1892, 1893, 1894, 1895
** ... 133 like lines cut
*Nset, nset=PIN_X_NODE, instance=Film-1
11
*Nset, nset=PIN_Z_NODE_A, instance=Film-1
11
*Nset, nset=PIN_Z_NODE_B, instance=Film-1
14501
*Nset, nset=TOPROLLER_RP, instance=TopRoller-1
5314
*Nset, nset=BOTTOMROLLER_RP, instance=BottomRoller-1
5314
*Surface, type=ELEMENT, name=FILM_TOP_SURF
Film-1.FILM_TOP_FACE_ELEMS, S5
*Surface, type=ELEMENT, name=FILM_BOTTOM_SURF
Film-1.FILM_BOTTOM_FACE_ELEMS, S3
*Surface, type=ELEMENT, name=TOPROLLER_CONTACT_SURF
TopRoller-1.TOPROLLER_ALL_ELEMS, SPOS
TopRoller-1.TOPROLLER_ALL_ELEMS, SNEG
*Surface, type=ELEMENT, name=BOTTOMROLLER_CONTACT_SURF
BottomRoller-1.BOTTOMROLLER_ALL_ELEMS, SPOS
BottomRoller-1.BOTTOMROLLER_ALL_ELEMS, SNEG
*Rigid Body, ref node=TOPROLLER_RP, elset=TopRoller-1.TOPROLLER_ALL_ELEMS
*Rigid Body, ref node=BOTTOMROLLER_RP, elset=BottomRoller-1.BOTTOMROLLER_ALL_ELEMS
*End Assembly
**
** MATERIALS
**
*Material, name=DrySelfSupportFilm_DPC
*Elastic
20, 0.1
** Drucker-Prager Cap材料参数映射：
** *Cap Plasticity: cohesion_d, friction_angle_beta, cap_eccentricity_R,
** initial_cap_position(按需求取Cap hardening第一行压力),
** transition_surface_radius_alpha, flow_stress_ratio_K
*Cap Plasticity
1, 40, 0.8, 2, 0.02, 1
*Cap Hardening
2, 0
2.5, 0.02
3.5, 0.05
5, 0.08
6.5, 0.1
10, 0.15
16, 0.2
**
** INTERACTIONS
**
*Surface Interaction, name=RollerFilmContact
*Surface Behavior, pressure-overclosure=HARD
*Friction
0.05
*Contact Pair, interaction=RollerFilmContact, type=SURFACE TO SURFACE
FILM_TOP_SURF, TOPROLLER_CONTACT_SURF
*Contact Pair, interaction=RollerFilmContact, type=SURFACE TO SURFACE
FILM_BOTTOM_SURF, BOTTOMROLLER_CONTACT_SURF
**
** INITIAL BOUNDARY CONDITIONS
**
*Boundary
BOTTOMROLLER_RP, 1, 6, 0.
TOPROLLER_RP, 1, 1, 0.
TOPROLLER_RP, 3, 6, 0.
PIN_X_NODE, 1, 1, 0.
PIN_Z_NODE_A, 3, 3, 0.
PIN_Z_NODE_B, 3, 3, 0.
** ----------------------------------------------------------------
*Step, name=Clamp_Down, nlgeom=YES
*Static, stabilize=0.0001
0.01, 1, 1e-08, 0.05
*Boundary
TOPROLLER_RP, 2, 2, -0.03
*Output, field
*Node Output
U
*Element Output, directions=YES
S, LE, PE, PEEQ, PRESS, EVOL
** 接触输出目标变量：CPRESS, CSHEAR1, CSHEAR2, COPEN；
** 当前求解器关键字形式使用PRESELECT，避免显式变量名不被该选项接受而中断。
*Contact Output, variable=PRESELECT
*Output, history
*Node Output, nset=TOPROLLER_RP
U2, RF2
*Energy Output
ALLIE, ALLPD, ALLSD
*End Step
** ----------------------------------------------------------------
*Step, name=Hold, nlgeom=YES
*Static, stabilize=0.0001
0.01, 1, 1e-08, 0.05
*Boundary
TOPROLLER_RP, 2, 2, -0.03
*Output, field
*Node Output
U
*Element Output, directions=YES
S, LE, PE, PEEQ, PRESS, EVOL
** 接触输出目标变量：CPRESS, CSHEAR1, CSHEAR2, COPEN；
** 当前求解器关键字形式使用PRESELECT，避免显式变量名不被该选项接受而中断。
*Contact Output, variable=PRESELECT
*Output, history
*Node Output, nset=TOPROLLER_RP
U2, RF2
*Energy Output
ALLIE, ALLPD, ALLSD
*End Step
** ----------------------------------------------------------------
*Step, name=Unload, nlgeom=YES
*Static, stabilize=0.0001
0.01, 1, 1e-08, 0.05
*Boundary
TOPROLLER_RP, 2, 2, 0
*Output, field
*Node Output
U
*Element Output, directions=YES
S, LE, PE, PEEQ, PRESS, EVOL
** 接触输出目标变量：CPRESS, CSHEAR1, CSHEAR2, COPEN；
** 当前求解器关键字形式使用PRESELECT，避免显式变量名不被该选项接受而中断。
*Contact Output, variable=PRESELECT
*Output, history
*Node Output, nset=TOPROLLER_RP
U2, RF2
*Energy Output
ALLIE, ALLPD, ALLSD
*End Step
