*Heading
 单层自支撑膜三维局部静态辊压等效模型
** Job name: SelfSupport_YanshanParam_LocalStaticPress_NoUnload Model name: SelfSupport_YanshanParam_LocalStaticPress_NoUnload
** Generated by: Abaqus/CAE 2025
*Preprint, echo=NO, model=NO, history=NO, contact=NO
**
** PARTS
**
*Part, name=Film
*Node
      1,           5.,  0.075000003,          50.
      2,           5., 0.0450000018,          50.
      3,           5., 0.0149999997,          50.
      4,           5., -0.0149999997,          50.
      5,           5., -0.0450000018,          50.
      6,           5., -0.075000003,          50.
      7,           5.,  0.075000003,          49.
      8,           5., 0.0450000018,          49.
      9,           5., 0.0149999997,          49.
     10,           5., -0.0149999997,          49.
     11,           5., -0.0450000018,          49.
     12,           5., -0.075000003,          49.
     13,           5.,  0.075000003,          48.
     14,           5., 0.0450000018,          48.
     15,           5., 0.0149999997,          48.
     16,           5., -0.0149999997,          48.
     17,           5., -0.0450000018,          48.
     18,           5., -0.075000003,          48.
     19,           5.,  0.075000003,          47.
     20,           5., 0.0450000018,          47.
** ... 15586 like lines cut
*Element, type=C3D8R
    1,   307,   308,   314,   313,     1,     2,     8,     7
    2,   308,   309,   315,   314,     2,     3,     9,     8
    3,   309,   310,   316,   315,     3,     4,    10,     9
    4,   310,   311,   317,   316,     4,     5,    11,    10
    5,   311,   312,   318,   317,     5,     6,    12,    11
    6,   313,   314,   320,   319,     7,     8,    14,    13
    7,   314,   315,   321,   320,     8,     9,    15,    14
    8,   315,   316,   322,   321,     9,    10,    16,    15
    9,   316,   317,   323,   322,    10,    11,    17,    16
   10,   317,   318,   324,   323,    11,    12,    18,    17
   11,   319,   320,   326,   325,    13,    14,    20,    19
   12,   320,   321,   327,   326,    14,    15,    21,    20
   13,   321,   322,   328,   327,    15,    16,    22,    21
   14,   322,   323,   329,   328,    16,    17,    23,    22
   15,   323,   324,   330,   329,    17,    18,    24,    23
   16,   325,   326,   332,   331,    19,    20,    26,    25
   17,   326,   327,   333,   332,    20,    21,    27,    26
   18,   327,   328,   334,   333,    21,    22,    28,    27
   19,   328,   329,   335,   334,    22,    23,    29,    28
   20,   329,   330,   336,   335,    23,    24,    30,    29
** ... 12480 like lines cut
*Nset, nset=ALL_FILM, generate
     1,  15606,      1
*Elset, elset=ALL_FILM, generate
     1,  12500,      1
*Nset, nset=FILM_XSYM, generate
 15301,  15606,      1
*Elset, elset=FILM_XSYM, generate
 12251,  12500,      1
*Nset, nset=FILM_ZSYM
   301,   302,   303,   304,   305,   306,   607,   608,   609,   610,   611,   612,   913,   914,   915,   916
   917,   918,  1219,  1220,  1221,  1222,  1223,  1224,  1525,  1526,  1527,  1528,  1529,  1530,  1831,  1832
  1833,  1834,  1835,  1836,  2137,  2138,  2139,  2140,  2141,  2142,  2443,  2444,  2445,  2446,  2447,  2448
  2749,  2750,  2751,  2752,  2753,  2754,  3055,  3056,  3057,  3058,  3059,  3060,  3361,  3362,  3363,  3364
  3365,  3366,  3667,  3668,  3669,  3670,  3671,  3672,  3973,  3974,  3975,  3976,  3977,  3978,  4279,  4280
  4281,  4282,  4283,  4284,  4585,  4586,  4587,  4588,  4589,  4590,  4891,  4892,  4893,  4894,  4895,  4896
  5197,  5198,  5199,  5200,  5201,  5202,  5503,  5504,  5505,  5506,  5507,  5508,  5809,  5810,  5811,  5812
  5813,  5814,  6115,  6116,  6117,  6118,  6119,  6120,  6421,  6422,  6423,  6424,  6425,  6426,  6727,  6728
  6729,  6730,  6731,  6732,  7033,  7034,  7035,  7036,  7037,  7038,  7339,  7340,  7341,  7342,  7343,  7344
  7645,  7646,  7647,  7648,  7649,  7650,  7951,  7952,  7953,  7954,  7955,  7956,  8257,  8258,  8259,  8260
  8261,  8262,  8563,  8564,  8565,  8566,  8567,  8568,  8869,  8870,  8871,  8872,  8873,  8874,  9175,  9176
  9177,  9178,  9179,  9180,  9481,  9482,  9483,  9484,  9485,  9486,  9787,  9788,  9789,  9790,  9791,  9792
 10093, 10094, 10095, 10096, 10097, 10098, 10399, 10400, 10401, 10402, 10403, 10404, 10705, 10706, 10707, 10708
 10709, 10710, 11011, 11012, 11013, 11014, 11015, 11016, 11317, 11318, 11319, 11320, 11321, 11322, 11623, 11624
 11625, 11626, 11627, 11628, 11929, 11930, 11931, 11932, 11933, 11934, 12235, 12236, 12237, 12238, 12239, 12240
 12541, 12542, 12543, 12544, 12545, 12546, 12847, 12848, 12849, 12850, 12851, 12852, 13153, 13154, 13155, 13156
 13157, 13158, 13459, 13460, 13461, 13462, 13463, 13464, 13765, 13766, 13767, 13768, 13769, 13770, 14071, 14072
 14073, 14074, 14075, 14076, 14377, 14378, 14379, 14380, 14381, 14382, 14683, 14684, 14685, 14686, 14687, 14688
 14989, 14990, 14991, 14992, 14993, 14994, 15295, 15296, 15297, 15298, 15299, 15300, 15601, 15602, 15603, 15604
 15605, 15606
*Elset, elset=FILM_ZSYM
   246,   247,   248,   249,   250,   496,   497,   498,   499,   500,   746,   747,   748,   749,   750,   996
   997,   998,   999,  1000,  1246,  1247,  1248,  1249,  1250,  1496,  1497,  1498,  1499,  1500,  1746,  1747
  1748,  1749,  1750,  1996,  1997,  1998,  1999,  2000,  2246,  2247,  2248,  2249,  2250,  2496,  2497,  2498
  2499,  2500,  2746,  2747,  2748,  2749,  2750,  2996,  2997,  2998,  2999,  3000,  3246,  3247,  3248,  3249
  3250,  3496,  3497,  3498,  3499,  3500,  3746,  3747,  3748,  3749,  3750,  3996,  3997,  3998,  3999,  4000
  4246,  4247,  4248,  4249,  4250,  4496,  4497,  4498,  4499,  4500,  4746,  4747,  4748,  4749,  4750,  4996
  4997,  4998,  4999,  5000,  5246,  5247,  5248,  5249,  5250,  5496,  5497,  5498,  5499,  5500,  5746,  5747
  5748,  5749,  5750,  5996,  5997,  5998,  5999,  6000,  6246,  6247,  6248,  6249,  6250,  6496,  6497,  6498
  6499,  6500,  6746,  6747,  6748,  6749,  6750,  6996,  6997,  6998,  6999,  7000,  7246,  7247,  7248,  7249
  7250,  7496,  7497,  7498,  7499,  7500,  7746,  7747,  7748,  7749,  7750,  7996,  7997,  7998,  7999,  8000
  8246,  8247,  8248,  8249,  8250,  8496,  8497,  8498,  8499,  8500,  8746,  8747,  8748,  8749,  8750,  8996
  8997,  8998,  8999,  9000,  9246,  9247,  9248,  9249,  9250,  9496,  9497,  9498,  9499,  9500,  9746,  9747
  9748,  9749,  9750,  9996,  9997,  9998,  9999, 10000, 10246, 10247, 10248, 10249, 10250, 10496, 10497, 10498
 10499, 10500, 10746, 10747, 10748, 10749, 10750, 10996, 10997, 10998, 10999, 11000, 11246, 11247, 11248, 11249
 11250, 11496, 11497, 11498, 11499, 11500, 11746, 11747, 11748, 11749, 11750, 11996, 11997, 11998, 11999, 12000
 12246, 12247, 12248, 12249, 12250, 12496, 12497, 12498, 12499, 12500
*Nset, nset=FILM_Y_DRIFT_ANCHOR
 6,
*Elset, elset=_FILM_TOP_S6, internal, generate
     1,  12496,      5
*Surface, type=ELEMENT, name=FILM_TOP
_FILM_TOP_S6, S6
*Elset, elset=_FILM_BOTTOM_S4, internal, generate
     5,  12500,      5
*Surface, type=ELEMENT, name=FILM_BOTTOM
_FILM_BOTTOM_S4, S4
** Section: FilmSection
*Solid Section, elset=ALL_FILM, controls=EC-1, material=SelfSupportingFilm_DPC_reference
,
*End Part
**  
*Part, name=LowerRoll
*Node
      1,           0., -0.075000003,           0.
      2,           0., -0.075000003,          10.
      3,           0., -0.075000003,          20.
      4,           0., -0.075000003,          30.
      5,           0., -0.075000003,          40.
      6,           0., -0.075000003,          50.
      7,           0., -0.075000003,          55.
      8,           0., -0.524999976,           0.
      9,           0., -0.524999976,          10.
     10,           0., -0.524999976,          20.
     11,           0., -0.524999976,          30.
     12,           0., -0.524999976,          40.
     13,           0., -0.524999976,          50.
     14,           0., -0.524999976,          55.
     15,           0.,       -1.875,           0.
     16,           0.,       -1.875,          10.
     17,           0.,       -1.875,          20.
     18,           0.,       -1.875,          30.
     19,           0.,       -1.875,          40.
     20,           0.,       -1.875,          50.
** ... 7330 like lines cut
*Element, type=C3D8R
   1,    1,  211,  212,    2,    8,  218,  219,    9
   2,    2,  212,  213,    3,    9,  219,  220,   10
   3,    3,  213,  214,    4,   10,  220,  221,   11
   4,    4,  214,  215,    5,   11,  221,  222,   12
   5,    5,  215,  216,    6,   12,  222,  223,   13
   6,    6,  216,  217,    7,   13,  223,  224,   14
   7,    8,  218,  219,    9,   15,  225,  226,   16
   8,    9,  219,  220,   10,   16,  226,  227,   17
   9,   10,  220,  221,   11,   17,  227,  228,   18
  10,   11,  221,  222,   12,   18,  228,  229,   19
  11,   12,  222,  223,   13,   19,  229,  230,   20
  12,   13,  223,  224,   14,   20,  230,  231,   21
  13,   15,  225,  226,   16,   22,  232,  233,   23
  14,   16,  226,  227,   17,   23,  233,  234,   24
  15,   17,  227,  228,   18,   24,  234,  235,   25
  16,   18,  228,  229,   19,   25,  235,  236,   26
  17,   19,  229,  230,   20,   26,  236,  237,   27
  18,   20,  230,  231,   21,   27,  237,  238,   28
  19,   22,  232,  233,   23,   29,  239,  240,   30
  20,   23,  233,  234,   24,   30,  240,  241,   31
** ... 5896 like lines cut
*Elset, elset=ALL_LOWERROLL, generate
    1,  5916,     1
*Nset, nset=LOWERROLL_XSYM, generate
   1,  210,    1
*Nset, nset=LOWERROLL_ZSYM, generate
    1,  7344,     7
*Elset, elset=_LOWERROLL_CONTACT_S1, internal
    1,    2,    3,    4,    5,    6,  175,  176,  177,  178,  179,  180,  349,  350,  351,  352
  353,  354,  523,  524,  525,  526,  527,  528,  697,  698,  699,  700,  701,  702,  871,  872
  873,  874,  875,  876, 1045, 1046, 1047, 1048, 1049, 1050, 1219, 1220, 1221, 1222, 1223, 1224
 1393, 1394, 1395, 1396, 1397, 1398, 1567, 1568, 1569, 1570, 1571, 1572, 1741, 1742, 1743, 1744
 1745, 1746, 1915, 1916, 1917, 1918, 1919, 1920, 2089, 2090, 2091, 2092, 2093, 2094, 2263, 2264
 2265, 2266, 2267, 2268, 2437, 2438, 2439, 2440, 2441, 2442, 2611, 2612, 2613, 2614, 2615, 2616
 2785, 2786, 2787, 2788, 2789, 2790, 2959, 2960, 2961, 2962, 2963, 2964, 3133, 3134, 3135, 3136
 3137, 3138, 3307, 3308, 3309, 3310, 3311, 3312, 3481, 3482, 3483, 3484, 3485, 3486, 3655, 3656
 3657, 3658, 3659, 3660, 3829, 3830, 3831, 3832, 3833, 3834, 4003, 4004, 4005, 4006, 4007, 4008
 4177, 4178, 4179, 4180, 4181, 4182, 4351, 4352, 4353, 4354, 4355, 4356, 4525, 4526, 4527, 4528
 4529, 4530, 4699, 4700, 4701, 4702, 4703, 4704, 4873, 4874, 4875, 4876, 4877, 4878, 5047, 5048
 5049, 5050, 5051, 5052, 5221, 5222, 5223, 5224, 5225, 5226, 5395, 5396, 5397, 5398, 5399, 5400
 5569, 5570, 5571, 5572, 5573, 5574, 5743, 5744, 5745, 5746, 5747, 5748
*Surface, type=ELEMENT, name=LOWERROLL_CONTACT
_LOWERROLL_CONTACT_S1, S1
*Elset, elset=_LOWERROLL_BEARING_END_S5, internal, generate
    6,  5916,     6
*Surface, type=ELEMENT, name=LOWERROLL_BEARING_END
_LOWERROLL_BEARING_END_S5, S5
** Section: RollSection
*Solid Section, elset=ALL_LOWERROLL, material=ElasticSteel_Roll
,
*End Part
**  
*Part, name=UpperRoll
*Node
      1,           0.,  0.075000003,           0.
      2,           0.,  0.075000003,          10.
      3,           0.,  0.075000003,          20.
      4,           0.,  0.075000003,          30.
      5,           0.,  0.075000003,          40.
      6,           0.,  0.075000003,          50.
      7,           0.,  0.075000003,          55.
      8,           0.,  0.524999976,           0.
      9,           0.,  0.524999976,          10.
     10,           0.,  0.524999976,          20.
     11,           0.,  0.524999976,          30.
     12,           0.,  0.524999976,          40.
     13,           0.,  0.524999976,          50.
     14,           0.,  0.524999976,          55.
     15,           0.,        1.875,           0.
     16,           0.,        1.875,          10.
     17,           0.,        1.875,          20.
     18,           0.,        1.875,          30.
     19,           0.,        1.875,          40.
     20,           0.,        1.875,          50.
** ... 7330 like lines cut
*Element, type=C3D8R
   1,    1,    2,  212,  211,    8,    9,  219,  218
   2,    2,    3,  213,  212,    9,   10,  220,  219
   3,    3,    4,  214,  213,   10,   11,  221,  220
   4,    4,    5,  215,  214,   11,   12,  222,  221
   5,    5,    6,  216,  215,   12,   13,  223,  222
   6,    6,    7,  217,  216,   13,   14,  224,  223
   7,    8,    9,  219,  218,   15,   16,  226,  225
   8,    9,   10,  220,  219,   16,   17,  227,  226
   9,   10,   11,  221,  220,   17,   18,  228,  227
  10,   11,   12,  222,  221,   18,   19,  229,  228
  11,   12,   13,  223,  222,   19,   20,  230,  229
  12,   13,   14,  224,  223,   20,   21,  231,  230
  13,   15,   16,  226,  225,   22,   23,  233,  232
  14,   16,   17,  227,  226,   23,   24,  234,  233
  15,   17,   18,  228,  227,   24,   25,  235,  234
  16,   18,   19,  229,  228,   25,   26,  236,  235
  17,   19,   20,  230,  229,   26,   27,  237,  236
  18,   20,   21,  231,  230,   27,   28,  238,  237
  19,   22,   23,  233,  232,   29,   30,  240,  239
  20,   23,   24,  234,  233,   30,   31,  241,  240
** ... 5896 like lines cut
*Elset, elset=ALL_UPPERROLL, generate
    1,  5916,     1
*Nset, nset=UPPERROLL_XSYM, generate
   1,  210,    1
*Nset, nset=UPPERROLL_ZSYM, generate
    1,  7344,     7
*Elset, elset=_UPPERROLL_CONTACT_S1, internal
    1,    2,    3,    4,    5,    6,  175,  176,  177,  178,  179,  180,  349,  350,  351,  352
  353,  354,  523,  524,  525,  526,  527,  528,  697,  698,  699,  700,  701,  702,  871,  872
  873,  874,  875,  876, 1045, 1046, 1047, 1048, 1049, 1050, 1219, 1220, 1221, 1222, 1223, 1224
 1393, 1394, 1395, 1396, 1397, 1398, 1567, 1568, 1569, 1570, 1571, 1572, 1741, 1742, 1743, 1744
 1745, 1746, 1915, 1916, 1917, 1918, 1919, 1920, 2089, 2090, 2091, 2092, 2093, 2094, 2263, 2264
 2265, 2266, 2267, 2268, 2437, 2438, 2439, 2440, 2441, 2442, 2611, 2612, 2613, 2614, 2615, 2616
 2785, 2786, 2787, 2788, 2789, 2790, 2959, 2960, 2961, 2962, 2963, 2964, 3133, 3134, 3135, 3136
 3137, 3138, 3307, 3308, 3309, 3310, 3311, 3312, 3481, 3482, 3483, 3484, 3485, 3486, 3655, 3656
 3657, 3658, 3659, 3660, 3829, 3830, 3831, 3832, 3833, 3834, 4003, 4004, 4005, 4006, 4007, 4008
 4177, 4178, 4179, 4180, 4181, 4182, 4351, 4352, 4353, 4354, 4355, 4356, 4525, 4526, 4527, 4528
 4529, 4530, 4699, 4700, 4701, 4702, 4703, 4704, 4873, 4874, 4875, 4876, 4877, 4878, 5047, 5048
 5049, 5050, 5051, 5052, 5221, 5222, 5223, 5224, 5225, 5226, 5395, 5396, 5397, 5398, 5399, 5400
 5569, 5570, 5571, 5572, 5573, 5574, 5743, 5744, 5745, 5746, 5747, 5748
*Surface, type=ELEMENT, name=UPPERROLL_CONTACT
_UPPERROLL_CONTACT_S1, S1
*Elset, elset=_UPPERROLL_BEARING_END_S4, internal, generate
    6,  5916,     6
*Surface, type=ELEMENT, name=UPPERROLL_BEARING_END
_UPPERROLL_BEARING_END_S4, S4
** Section: RollSection
*Solid Section, elset=ALL_UPPERROLL, material=ElasticSteel_Roll
,
*End Part
**  
**
** ASSEMBLY
**
*Assembly, name=Assembly
**  
*Instance, name=Film-1, part=Film
*End Instance
**  
*Instance, name=UpperRoll-1, part=UpperRoll
*End Instance
**  
*Instance, name=LowerRoll-1, part=LowerRoll
*End Instance
**  
*Node
      1,           0.,   450.075012,          55.
*Node
      2,           0.,  -450.075012,          55.
*Nset, nset=LOWER_ROLL_RP
 2,
*Nset, nset=UPPER_ROLL_RP
 1,
** Constraint: Lower_RP_to_BearingEnd
*Coupling, constraint name=Lower_RP_to_BearingEnd, ref node=LOWER_ROLL_RP, surface=LowerRoll-1.LOWERROLL_BEARING_END
*Distributing, coupling=CONTINUUM, rotational coupling=CONTINUUM, weighting method=UNIFORM
1, 1
2, 2
3, 3
** Constraint: Upper_RP_to_BearingEnd
*Coupling, constraint name=Upper_RP_to_BearingEnd, ref node=UPPER_ROLL_RP, surface=UpperRoll-1.UPPERROLL_BEARING_END
*Distributing, coupling=CONTINUUM, rotational coupling=CONTINUUM, weighting method=UNIFORM
1, 1
2, 2
3, 3
*End Assembly
** 
** ELEMENT CONTROLS
** 
*Section Controls, name=EC-1, hourglass=ENHANCED
1., 1., 1.
** 
** MATERIALS
** 
*Material, name=ElasticSteel_Roll
*Elastic
193000., 0.2
*Material, name=SelfSupportingFilm_DPC_reference
*Cap Plasticity
4.,  65.,  0.8,  60., 0.02,   1.
*Cap Hardening
 60.,   0.
 62., 0.05
 66.,  0.1
 72., 0.15
 80., 0.18
 90.,  0.2
110., 0.22
140., 0.24
190., 0.26
270., 0.28
390.,  0.3
480., 0.31
600., 0.32
740., 0.33
*Elastic
6500., 0.01
** 
** INTERACTION PROPERTIES
** 
*Surface Interaction, name=Roll_Film_Friction
1.,
*Friction, slip tolerance=0.005
 0.15,
*Surface Behavior, pressure-overclosure=HARD
** 
** BOUNDARY CONDITIONS
** 
** Name: BC_FILM_XSYM Type: 对称/反对称/完全固定
*Boundary
Film-1.FILM_XSYM, XSYMM
** Name: BC_FILM_ZSYM Type: 对称/反对称/完全固定
*Boundary
Film-1.FILM_ZSYM, ZSYMM
** Name: BC_Film_Y_Drift_Anchor Type: 位移/转角
*Boundary
Film-1.FILM_Y_DRIFT_ANCHOR, 2, 2
** Name: BC_LOWERROLL_XSYM Type: 对称/反对称/完全固定
*Boundary
LowerRoll-1.LOWERROLL_XSYM, XSYMM
** Name: BC_LOWERROLL_ZSYM Type: 对称/反对称/完全固定
*Boundary
LowerRoll-1.LOWERROLL_ZSYM, ZSYMM
** Name: BC_Lower_RP_Fixed Type: 位移/转角
*Boundary
LOWER_ROLL_RP, 1, 1
LOWER_ROLL_RP, 2, 2
LOWER_ROLL_RP, 3, 3
** Name: BC_UPPERROLL_XSYM Type: 对称/反对称/完全固定
*Boundary
UpperRoll-1.UPPERROLL_XSYM, XSYMM
** Name: BC_UPPERROLL_ZSYM Type: 对称/反对称/完全固定
*Boundary
UpperRoll-1.UPPERROLL_ZSYM, ZSYMM
** Name: BC_Upper_RP_Press Type: 位移/转角
*Boundary
UPPER_ROLL_RP, 1, 1
UPPER_ROLL_RP, 2, 2
UPPER_ROLL_RP, 3, 3
** 
** INTERACTIONS
** 
** Interaction: LowerRoll_to_Film
*Contact Pair, interaction=Roll_Film_Friction, type=SURFACE TO SURFACE
Film-1.FILM_BOTTOM, LowerRoll-1.LOWERROLL_CONTACT
** Interaction: UpperRoll_to_Film
*Contact Pair, interaction=Roll_Film_Friction, type=SURFACE TO SURFACE
Film-1.FILM_TOP, UpperRoll-1.UPPERROLL_CONTACT
** ----------------------------------------------------------------
** 
** STEP: Clamp_Down
** 
*Step, name=Clamp_Down, nlgeom=YES, inc=120
*Static
0.025, 1., 1e-08, 0.05
** 
** BOUNDARY CONDITIONS
** 
** Name: BC_Upper_RP_Press Type: 位移/转角
*Boundary
UPPER_ROLL_RP, 2, 2, -0.015
** 
** OUTPUT REQUESTS
** 
*Restart, write, frequency=0
** 
** FIELD OUTPUT: ContactOutputs
** 
*Output, field, frequency=5
*Contact Output
CSTRESS, CDISP
** 
** FIELD OUTPUT: FieldOutputs
** 
*Node Output
U, 
*Element Output, directions=YES
EVOL, LE, PE, PEEQ, S
** 
** HISTORY OUTPUT: Energy_History
** 
*Output, history
*Energy Output
ALLIE, ALLPD, ALLSD
** 
** HISTORY OUTPUT: Upper_RP_U2_RF2
** 
*Node Output, nset=UPPER_ROLL_RP
RF2, U2
*End Step
** ----------------------------------------------------------------
** 
** STEP: Hold
** 
*Step, name=Hold, nlgeom=YES, inc=20
*Static
1., 1., 1e-08, 1.
** 
** BOUNDARY CONDITIONS
** 
** Name: BC_Upper_RP_Press Type: 位移/转角
*Boundary
UPPER_ROLL_RP, 2, 2, -0.015
** 
** OUTPUT REQUESTS
** 
*Restart, write, frequency=0
** 
** FIELD OUTPUT: ContactOutputs
** 
*Output, field, frequency=5
*Contact Output
CSTRESS, CDISP
** 
** FIELD OUTPUT: FieldOutputs
** 
*Node Output
U, 
*Element Output, directions=YES
EVOL, LE, PE, PEEQ, S
** 
** HISTORY OUTPUT: Energy_History
** 
*Output, history
*Energy Output
ALLIE, ALLPD, ALLSD
** 
** HISTORY OUTPUT: Upper_RP_U2_RF2
** 
*Node Output, nset=UPPER_ROLL_RP
RF2, U2
*End Step
