*Heading
 3D explicit staged clamp-then-roll model for a self-supporting coating film
** Job name: RollPress_3D_SelfSupport_DiffSpeed_DPC_S00008B5_50mm_Roll2mm_RigidRoller_Stable Model name: RollPress_3D_SelfSupport_DiffSpeed_DPC_S00008B5_50mm_Roll2mm_RigidRoller_Stable
** Generated by: Abaqus/CAE 2025
*Preprint, echo=NO, model=NO, history=NO, contact=NO
**
** PARTS
**
*Part, name=ActiveLayer
*Node
      1,          -1.,  0.150000006,         100.
      2,          -1.,  0.150000006,           0.
      3,          -5.,  0.150000006,           0.
      4,          -5.,  0.150000006,         100.
      5,          -1.,           0.,           0.
      6,          -5.,           0.,           0.
      7,          -5.,           0.,         100.
      8,          -1.,           0.,         100.
      9,         -12.,  0.150000006,           0.
     10,         -12.,  0.150000006,         100.
     11,         -12.,           0.,           0.
     12,         -12.,           0.,         100.
     13,         -20.,           0.,         100.
     14,         -20.,           0.,           0.
     15,         -20.,  0.150000006,         100.
     16,         -20.,  0.150000006,           0.
     17,         -35.,  0.150000006,           0.
     18,         -35.,  0.150000006,         100.
     19,         -35.,           0.,           0.
     20,         -35.,           0.,         100.
** ... 14248 like lines cut
*Element, type=C3D8R
   1,  240, 1867, 6313, 1771,    1,   29,  835,  130
   2, 1867, 1868, 6314, 6313,   29,   30,  836,  835
   3, 1868, 1869, 6315, 6314,   30,   31,  837,  836
   4, 1869, 1870, 6316, 6315,   31,   32,  838,  837
   5, 1870, 1871, 6317, 6316,   32,   33,  839,  838
   6, 1871, 1872, 6318, 6317,   33,   34,  840,  839
   7, 1872, 1873, 6319, 6318,   34,   35,  841,  840
   8, 1873, 1874, 6320, 6319,   35,   36,  842,  841
   9, 1874, 1875, 6321, 6320,   36,   37,  843,  842
  10, 1875, 1876, 6322, 6321,   37,   38,  844,  843
  11, 1876, 1877, 6323, 6322,   38,   39,  845,  844
  12, 1877, 1878, 6324, 6323,   39,   40,  846,  845
  13, 1878, 1879, 6325, 6324,   40,   41,  847,  846
  14, 1879, 1880, 6326, 6325,   41,   42,  848,  847
  15, 1880, 1881, 6327, 6326,   42,   43,  849,  848
  16, 1881, 1882, 6328, 6327,   43,   44,  850,  849
  17, 1882, 1883, 6329, 6328,   44,   45,  851,  850
  18, 1883, 1884, 6330, 6329,   45,   46,  852,  851
  19, 1884, 1885, 6331, 6330,   46,   47,  853,  852
  20, 1885, 1886, 6332, 6331,   47,   48,  854,  853
** ... 11380 like lines cut
*Nset, nset=_PickedSet12, internal, generate
     1,  14268,      1
*Elset, elset=_PickedSet12, internal, generate
     1,  11400,      1
*Elset, elset=_Top_S6, internal, generate
 10801,  11396,      5
*Elset, elset=_Top_S2, internal
    1,    2,    3,    4,    5,    6,    7,    8,    9,   10,   11,   12,   13,   14,   15,   16
   17,   18,   19,   20,   21,   22,   23,   24,   25,   26,   27,   28,   29,   30,   31,   32
   33,   34,   35,   36,   37,   38,   39,   40,   41,   42,   43,   44,   45,   46,   47,   48
   49,   50,   51,   52,   53,   54,   55,   56,   57,   58,   59,   60,   61,   62,   63,   64
   65,   66,   67,   68,   69,   70,   71,   72,   73,   74,   75,   76,   77,   78,   79,   80
   81,   82,   83,   84,   85,   86,   87,   88,   89,   90,   91,   92,   93,   94,   95,   96
   97,   98,   99,  100,  101,  102,  103,  104,  105,  106,  107,  108,  109,  110,  111,  112
  113,  114,  115,  116,  117,  118,  119,  120,  121,  122,  123,  124,  125,  126,  127,  128
  129,  130,  131,  132,  133,  134,  135,  136,  137,  138,  139,  140,  141,  142,  143,  144
  145,  146,  147,  148,  149,  150,  151,  152,  153,  154,  155,  156,  157,  158,  159,  160
  161,  162,  163,  164,  165,  166,  167,  168,  169,  170,  171,  172,  173,  174,  175,  176
  177,  178,  179,  180,  181,  182,  183,  184,  185,  186,  187,  188,  189,  190,  191,  192
  193,  194,  195,  196,  197,  198,  199,  200,  201,  202,  203,  204,  205,  206,  207,  208
  209,  210,  211,  212,  213,  214,  215,  216,  217,  218,  219,  220,  221,  222,  223,  224
  225,  226,  227,  228,  229,  230,  231,  232,  233,  234,  235,  236,  237,  238,  239,  240
  241,  242,  243,  244,  245,  246,  247,  248,  249,  250,  251,  252,  253,  254,  255,  256
  257,  258,  259,  260,  261,  262,  263,  264,  265,  266,  267,  268,  269,  270,  271,  272
  273,  274,  275,  276,  277,  278,  279,  280,  281,  282,  283,  284,  285,  286,  287,  288
  289,  290,  291,  292,  293,  294,  295,  296,  297,  298,  299,  300,  301,  302,  303,  304
  305,  306,  307,  308,  309,  310,  311,  312,  313,  314,  315,  316,  317,  318,  319,  320
** ... 83 like lines cut
*Elset, elset=_Top_S1, internal, generate
 7081,  7600,     1
*Surface, type=ELEMENT, name=Top
_Top_S6, S6
_Top_S2, S2
_Top_S1, S1
*Elset, elset=_Bottom_S1, internal
  2081,  2082,  2083,  2084,  2085,  2086,  2087,  2088,  2089,  2090,  2091,  2092,  2093,  2094,  2095,  2096
  2097,  2098,  2099,  2100,  2101,  2102,  2103,  2104,  2105,  2106,  2107,  2108,  2109,  2110,  2111,  2112
  2113,  2114,  2115,  2116,  2117,  2118,  2119,  2120,  2121,  2122,  2123,  2124,  2125,  2126,  2127,  2128
  2129,  2130,  2131,  2132,  2133,  2134,  2135,  2136,  2137,  2138,  2139,  2140,  2141,  2142,  2143,  2144
  2145,  2146,  2147,  2148,  2149,  2150,  2151,  2152,  2153,  2154,  2155,  2156,  2157,  2158,  2159,  2160
  2161,  2162,  2163,  2164,  2165,  2166,  2167,  2168,  2169,  2170,  2171,  2172,  2173,  2174,  2175,  2176
  2177,  2178,  2179,  2180,  2181,  2182,  2183,  2184,  2185,  2186,  2187,  2188,  2189,  2190,  2191,  2192
  2193,  2194,  2195,  2196,  2197,  2198,  2199,  2200,  2201,  2202,  2203,  2204,  2205,  2206,  2207,  2208
  2209,  2210,  2211,  2212,  2213,  2214,  2215,  2216,  2217,  2218,  2219,  2220,  2221,  2222,  2223,  2224
  2225,  2226,  2227,  2228,  2229,  2230,  2231,  2232,  2233,  2234,  2235,  2236,  2237,  2238,  2239,  2240
  2241,  2242,  2243,  2244,  2245,  2246,  2247,  2248,  2249,  2250,  2251,  2252,  2253,  2254,  2255,  2256
  2257,  2258,  2259,  2260,  2261,  2262,  2263,  2264,  2265,  2266,  2267,  2268,  2269,  2270,  2271,  2272
  2273,  2274,  2275,  2276,  2277,  2278,  2279,  2280,  2281,  2282,  2283,  2284,  2285,  2286,  2287,  2288
  2289,  2290,  2291,  2292,  2293,  2294,  2295,  2296,  2297,  2298,  2299,  2300,  2301,  2302,  2303,  2304
  2305,  2306,  2307,  2308,  2309,  2310,  2311,  2312,  2313,  2314,  2315,  2316,  2317,  2318,  2319,  2320
  2321,  2322,  2323,  2324,  2325,  2326,  2327,  2328,  2329,  2330,  2331,  2332,  2333,  2334,  2335,  2336
  2337,  2338,  2339,  2340,  2341,  2342,  2343,  2344,  2345,  2346,  2347,  2348,  2349,  2350,  2351,  2352
  2353,  2354,  2355,  2356,  2357,  2358,  2359,  2360,  2361,  2362,  2363,  2364,  2365,  2366,  2367,  2368
  2369,  2370,  2371,  2372,  2373,  2374,  2375,  2376,  2377,  2378,  2379,  2380,  2381,  2382,  2383,  2384
  2385,  2386,  2387,  2388,  2389,  2390,  2391,  2392,  2393,  2394,  2395,  2396,  2397,  2398,  2399,  2400
** ... 83 like lines cut
*Elset, elset=_Bottom_S4, internal, generate
 10805,  11400,      5
*Elset, elset=_Bottom_S2, internal, generate
 5001,  5520,     1
*Surface, type=ELEMENT, name=Bottom
_Bottom_S1, S1
_Bottom_S4, S4
_Bottom_S2, S2
*Elset, elset=_Front_S2, internal, generate
 10801,  11000,      1
*Surface, type=ELEMENT, name=Front
_Front_S2, S2
*Elset, elset=_Back_S5, internal
  9801,  9802,  9803,  9804,  9805,  9806,  9807,  9808,  9809,  9810,  9811,  9812,  9813,  9814,  9815,  9816
  9817,  9818,  9819,  9820,  9821,  9822,  9823,  9824,  9825,  9826,  9827,  9828,  9829,  9830,  9831,  9832
  9833,  9834,  9835,  9836,  9837,  9838,  9839,  9840, 10041, 10042, 10043, 10044, 10045, 10046, 10047, 10048
 10049, 10050, 10051, 10052, 10053, 10054, 10055, 10056, 10057, 10058, 10059, 10060, 10061, 10062, 10063, 10064
 10065, 10066, 10067, 10068, 10069, 10070, 10071, 10072, 10073, 10074, 10075, 10076, 10077, 10078, 10079, 10080
 10281, 10282, 10283, 10284, 10285, 10286, 10287, 10288, 10289, 10290, 10291, 10292, 10293, 10294, 10295, 10296
 10297, 10298, 10299, 10300, 10301, 10302, 10303, 10304, 10305, 10306, 10307, 10308, 10309, 10310, 10311, 10312
 10313, 10314, 10315, 10316, 10317, 10318, 10319, 10320, 10521, 10522, 10523, 10524, 10525, 10526, 10527, 10528
 10529, 10530, 10531, 10532, 10533, 10534, 10535, 10536, 10537, 10538, 10539, 10540, 10541, 10542, 10543, 10544
 10545, 10546, 10547, 10548, 10549, 10550, 10551, 10552, 10553, 10554, 10555, 10556, 10557, 10558, 10559, 10560
 10761, 10762, 10763, 10764, 10765, 10766, 10767, 10768, 10769, 10770, 10771, 10772, 10773, 10774, 10775, 10776
 10777, 10778, 10779, 10780, 10781, 10782, 10783, 10784, 10785, 10786, 10787, 10788, 10789, 10790, 10791, 10792
 10793, 10794, 10795, 10796, 10797, 10798, 10799, 10800
*Surface, type=ELEMENT, name=Back
_Back_S5, S5
** Section: Sec_ActiveLayer
*Solid Section, elset=_PickedSet12, material=ActiveLayer_Porous_Calibratable
,
*End Part
**  
*Part, name=RigidRoller_CylindricalShell
*Node
      1,   48.5470924,  -11.9657831,         140.
      2,   44.2728004,  -23.2361584,         140.
      3,   37.4255371,  -33.1561317,         140.
      4,   28.4032364,  -41.1491928,         140.
      5,   17.7302437,  -46.7508125,         140.
      6,   6.02683401,  -49.6354446,         140.
      7,  -6.02683401,  -49.6354446,         140.
      8,  -17.7302437,  -46.7508125,         140.
      9,  -28.4032364,  -41.1491928,         140.
     10,  -37.4255371,  -33.1561317,         140.
     11,  -44.2728004,  -23.2361584,         140.
     12,  -48.5470924,  -11.9657831,         140.
     13,         -50.,           0.,         140.
     14,  -48.5470924,   11.9657831,         140.
     15,  -44.2728004,   23.2361584,         140.
     16,  -37.4255371,   33.1561317,         140.
     17,  -28.4032364,   41.1491928,         140.
     18,  -17.7302437,   46.7508125,         140.
     19,  -6.02683401,   49.6354446,         140.
     20,   6.02683401,   49.6354446,         140.
** ... 318 like lines cut
*Element, type=R3D4
  1,  26,   1,  27,  52
  2,   1,   2,  28,  27
  3,   2,   3,  29,  28
  4,   3,   4,  30,  29
  5,   4,   5,  31,  30
  6,   5,   6,  32,  31
  7,   6,   7,  33,  32
  8,   7,   8,  34,  33
  9,   8,   9,  35,  34
 10,   9,  10,  36,  35
 11,  10,  11,  37,  36
 12,  11,  12,  38,  37
 13,  12,  13,  39,  38
 14,  13,  14,  40,  39
 15,  14,  15,  41,  40
 16,  15,  16,  42,  41
 17,  16,  17,  43,  42
 18,  17,  18,  44,  43
 19,  18,  19,  45,  44
 20,  19,  20,  46,  45
** ... 292 like lines cut
*Elset, elset=_ContactFace_SPOS, internal, generate
   1,  312,    1
*Surface, type=ELEMENT, name=ContactFace
_ContactFace_SPOS, SPOS
*End Part
**  
**
** ASSEMBLY
**
*Assembly, name=Assembly
**  
*Instance, name=ActiveLayer-1, part=ActiveLayer
          0.,           0.,         -50.
*End Instance
**  
*Instance, name=LowerRoller-1, part=RigidRoller_CylindricalShell
          0.,         -50.,         -70.
*End Instance
**  
*Instance, name=UpperRoller-1, part=RigidRoller_CylindricalShell
          0.,        50.15,         -70.
*End Instance
**  
*Node
      1,           0.,   50.1500015,           0.
*Node
      2,           0.,         -50.,           0.
*Elset, elset=MassScale_Active_Critical, instance=ActiveLayer-1, generate
     1,  11400,      1
*Nset, nset=RP_LowerRoller
 2,
*Nset, nset=RP_UpperRoller
 1,
*Nset, nset=Sheet_Active, instance=ActiveLayer-1, generate
     1,  14268,      1
*Elset, elset=Sheet_Active, instance=ActiveLayer-1, generate
     1,  11400,      1
*Nset, nset=Sheet_All, instance=ActiveLayer-1, generate
     1,  14268,      1
*Elset, elset=Sheet_All, instance=ActiveLayer-1, generate
     1,  11400,      1
*Nset, nset=_PickedSet17, internal, instance=UpperRoller-1, generate
   1,  338,    1
*Elset, elset=_PickedSet17, internal, instance=UpperRoller-1, generate
   1,  312,    1
*Nset, nset=_PickedSet18, internal, instance=LowerRoller-1, generate
   1,  338,    1
*Elset, elset=_PickedSet18, internal, instance=LowerRoller-1, generate
   1,  312,    1
*Elset, elset=_Sheet_BackFace_S5, internal, instance=ActiveLayer-1
  9801,  9802,  9803,  9804,  9805,  9806,  9807,  9808,  9809,  9810,  9811,  9812,  9813,  9814,  9815,  9816
  9817,  9818,  9819,  9820,  9821,  9822,  9823,  9824,  9825,  9826,  9827,  9828,  9829,  9830,  9831,  9832
  9833,  9834,  9835,  9836,  9837,  9838,  9839,  9840, 10041, 10042, 10043, 10044, 10045, 10046, 10047, 10048
 10049, 10050, 10051, 10052, 10053, 10054, 10055, 10056, 10057, 10058, 10059, 10060, 10061, 10062, 10063, 10064
 10065, 10066, 10067, 10068, 10069, 10070, 10071, 10072, 10073, 10074, 10075, 10076, 10077, 10078, 10079, 10080
 10281, 10282, 10283, 10284, 10285, 10286, 10287, 10288, 10289, 10290, 10291, 10292, 10293, 10294, 10295, 10296
 10297, 10298, 10299, 10300, 10301, 10302, 10303, 10304, 10305, 10306, 10307, 10308, 10309, 10310, 10311, 10312
 10313, 10314, 10315, 10316, 10317, 10318, 10319, 10320, 10521, 10522, 10523, 10524, 10525, 10526, 10527, 10528
 10529, 10530, 10531, 10532, 10533, 10534, 10535, 10536, 10537, 10538, 10539, 10540, 10541, 10542, 10543, 10544
 10545, 10546, 10547, 10548, 10549, 10550, 10551, 10552, 10553, 10554, 10555, 10556, 10557, 10558, 10559, 10560
 10761, 10762, 10763, 10764, 10765, 10766, 10767, 10768, 10769, 10770, 10771, 10772, 10773, 10774, 10775, 10776
 10777, 10778, 10779, 10780, 10781, 10782, 10783, 10784, 10785, 10786, 10787, 10788, 10789, 10790, 10791, 10792
 10793, 10794, 10795, 10796, 10797, 10798, 10799, 10800
*Surface, type=ELEMENT, name=Sheet_BackFace
_Sheet_BackFace_S5, S5
*Elset, elset=_Sheet_FrontFace_S2, internal, instance=ActiveLayer-1, generate
 10801,  11000,      1
*Surface, type=ELEMENT, name=Sheet_FrontFace
_Sheet_FrontFace_S2, S2
** Constraint: Rigid_LowerRoller
*Rigid Body, ref node=RP_LowerRoller, elset=_PickedSet18
** Constraint: Rigid_UpperRoller
*Rigid Body, ref node=RP_UpperRoller, elset=_PickedSet17
*End Assembly
*Amplitude, name=Amp_Clamp_Drop, time=TOTAL TIME, definition=SMOOTH STEP
             0.,              0.,           0.005,              1.,           0.175,              1.
*Amplitude, name=Amp_Rolling_Spin, definition=SMOOTH STEP
             0.,              0.,            0.01,              1.,            0.15,              1.
** 
** MATERIALS
** 
*Material, name=ActiveLayer_Porous_Calibratable
*Cap Plasticity
 0.0032,    5.,   0.8, 0.048,  0.02,    1.
*Cap Hardening
  0.048,   0.
 0.0496, 0.05
 0.0528,  0.1
 0.0576, 0.15
  0.064, 0.18
  0.072,  0.2
  0.088, 0.22
  0.112, 0.24
  0.152, 0.26
  0.216, 0.28
  0.312,  0.3
  0.384, 0.31
   0.48, 0.32
  0.592, 0.33
*Density
 2.55e-09,
*Elastic
6500., 0.01
** 
** INTERACTION PROPERTIES
** 
*Surface Interaction, name=Contact_Roller_Active_mu0p1
*Friction
 0.1,
*Surface Behavior, pressure-overclosure=HARD
** 
** BOUNDARY CONDITIONS
** 
** Name: BC_Lower_RP_Support Type: 位移/转角
*Boundary
RP_LowerRoller, 1, 1
RP_LowerRoller, 2, 2
RP_LowerRoller, 3, 3
RP_LowerRoller, 4, 4
RP_LowerRoller, 5, 5
** Name: BC_Upper_RP_LateralSupport Type: 位移/转角
*Boundary
RP_UpperRoller, 1, 1
RP_UpperRoller, 3, 3
RP_UpperRoller, 4, 4
RP_UpperRoller, 5, 5
** 
** INTERACTIONS
** 
** Interaction: GeneralContact_RollerFilm
*Contact, op=NEW
*Contact Inclusions, ALL EXTERIOR
*Contact Property Assignment
 ,  , Contact_Roller_Active_mu0p1
** ----------------------------------------------------------------
** 
** STEP: Clamp_Down
** 
*Step, name=Clamp_Down, nlgeom=YES
*Dynamic, Explicit
, 0.005
*Bulk Viscosity
0.12, 1.2
** 
** BOUNDARY CONDITIONS
** 
** Name: BC_Lower_NoSpin_ClampHold Type: 位移/转角
*Fixed Mass Scaling, type=below min, dt=5e-06, elset=MassScale_Active_Critical
*Boundary
RP_LowerRoller, 6, 6
** Name: BC_Upper_NoSpin_ClampHold Type: 位移/转角
*Boundary
RP_UpperRoller, 6, 6
** Name: BC_Upper_RP_Drop Type: 位移/转角
*Boundary, amplitude=Amp_Clamp_Drop
RP_UpperRoller, 2, 2, -0.015
** 
** LOADS
** 
** Name: Load_Back_Tension   Type: Surface traction
*Dsload, follower=NO
Sheet_BackFace, TRVEC, 0.01, -1., 0., 0.
** Name: Load_Front_Tension   Type: Surface traction
*Dsload, follower=NO
Sheet_FrontFace, TRVEC, 0.01, 1., 0., 0.
** 
** OUTPUT REQUESTS
** 
*Restart, write, number interval=1, time marks=NO
** 
** FIELD OUTPUT: F_Sheet_StressStrain
** 
*Output, field, number interval=80
*Node Output, nset=Sheet_All, variable=PRESELECT
*Element Output, elset=Sheet_All, directions=YES
LE, PE, PEEQ, S
*Contact Output, variable=PRESELECT
** 
** HISTORY OUTPUT: H-Output-1
** 
*Output, history, variable=PRESELECT
** 
** HISTORY OUTPUT: H_Energy
** 
*Output, history, time interval=2e-05
*Energy Output
ALLAE, ALLIE, ALLKE, ALLMW, ALLPD, ALLSE, ALLWK
** 
** HISTORY OUTPUT: H_LowerRoller_RP
** 
*Node Output, nset=RP_LowerRoller
RF1, RF2, RF3, RM3, U2, UR3, VR3
** 
** HISTORY OUTPUT: H_UpperRoller_RP
** 
*Node Output, nset=RP_UpperRoller
RF1, RF2, RF3, RM3, U2, UR3, VR3
*End Step
** ----------------------------------------------------------------
** 
** STEP: Hold_Clamp
** 
*Step, name=Hold_Clamp, nlgeom=YES
*Dynamic, Explicit
, 0.02
*Bulk Viscosity
0.12, 1.2
** 
** OUTPUT REQUESTS
** 
*Restart, write, number interval=1, time marks=NO
** 
** FIELD OUTPUT: F_Sheet_StressStrain
** 
*Output, field, number interval=80
*Node Output, nset=Sheet_All, variable=PRESELECT
*Element Output, elset=Sheet_All, directions=YES
LE, PE, PEEQ, S
*Contact Output, variable=PRESELECT
** 
** HISTORY OUTPUT: H-Output-1
** 
*Output, history, variable=PRESELECT
** 
** HISTORY OUTPUT: H_Energy
** 
*Output, history, time interval=8e-05
*Energy Output
ALLAE, ALLIE, ALLKE, ALLMW, ALLPD, ALLSE, ALLWK
** 
** HISTORY OUTPUT: H_LowerRoller_RP
** 
*Node Output, nset=RP_LowerRoller
RF1, RF2, RF3, RM3, U2, UR3, VR3
** 
** HISTORY OUTPUT: H_UpperRoller_RP
** 
*Node Output, nset=RP_UpperRoller
RF1, RF2, RF3, RM3, U2, UR3, VR3
*End Step
** ----------------------------------------------------------------
** 
** STEP: Rolling
** 
*Step, name=Rolling, nlgeom=YES
*Dynamic, Explicit
, 0.15
*Bulk Viscosity
0.12, 1.2
** 
** BOUNDARY CONDITIONS
** 
** Name: BC_Lower_NoSpin_ClampHold Type: 位移/转角
*Boundary, op=NEW
** Name: BC_Lower_RP_Support Type: 位移/转角
*Boundary, op=NEW
RP_LowerRoller, 1, 1
RP_LowerRoller, 2, 2
RP_LowerRoller, 3, 3
RP_LowerRoller, 4, 4
RP_LowerRoller, 5, 5
** Name: BC_Lower_Rotation Type: 速度/角速度
*Boundary, op=NEW, amplitude=Amp_Rolling_Spin, type=VELOCITY
RP_LowerRoller, 6, 6, -0.166667
** Name: BC_Upper_NoSpin_ClampHold Type: 位移/转角
*Boundary, op=NEW
** Name: BC_Upper_RP_Drop Type: 位移/转角
*Boundary, op=NEW, amplitude=Amp_Clamp_Drop
RP_UpperRoller, 2, 2, -0.015
** Name: BC_Upper_RP_LateralSupport Type: 位移/转角
*Boundary, op=NEW
RP_UpperRoller, 1, 1
RP_UpperRoller, 3, 3
RP_UpperRoller, 4, 4
RP_UpperRoller, 5, 5
** Name: BC_Upper_Rotation Type: 速度/角速度
*Boundary, op=NEW, amplitude=Amp_Rolling_Spin, type=VELOCITY
RP_UpperRoller, 6, 6, 0.266667
** 
** OUTPUT REQUESTS
** 
*Restart, write, number interval=1, time marks=NO
** 
** FIELD OUTPUT: F_Sheet_StressStrain
** 
*Output, field, number interval=80
*Node Output, nset=Sheet_All, variable=PRESELECT
*Element Output, elset=Sheet_All, directions=YES
LE, PE, PEEQ, S
*Contact Output, variable=PRESELECT
** 
** HISTORY OUTPUT: H-Output-1
** 
*Output, history, variable=PRESELECT
** 
** HISTORY OUTPUT: H_Energy
** 
*Output, history, time interval=0.0006
*Energy Output
ALLAE, ALLIE, ALLKE, ALLMW, ALLPD, ALLSE, ALLWK
** 
** HISTORY OUTPUT: H_LowerRoller_RP
** 
*Node Output, nset=RP_LowerRoller
RF1, RF2, RF3, RM3, U2, UR3, VR3
** 
** HISTORY OUTPUT: H_UpperRoller_RP
** 
*Node Output, nset=RP_UpperRoller
RF1, RF2, RF3, RM3, U2, UR3, VR3
*End Step
