*Heading
 Local static symmetric normal press model with rigid rollers
** Job name: RollPress_Static_LocalSym_50mm_RigidRoller Model name: RollPress_Static_LocalSym_50mm_RigidRoller
** Generated by: Abaqus/CAE 2025
*Preprint, echo=NO, model=NO, history=NO, contact=NO
**
** PARTS
**
*Part, name=ActiveLayer
*Node
      1,          50.,           0.,         12.5
      2,          50.,  0.150000006,         12.5
      3,          50.,  0.150000006,          25.
      4,          50.,           0.,          25.
      5,           0.,  0.150000006,         12.5
      6,           0.,  0.150000006,          25.
      7,           0.,           0.,          25.
      8,           0.,           0.,         12.5
      9,          50.,  0.150000006,           5.
     10,          50.,           0.,           5.
     11,          50.,           0.,           1.
     12,          50.,  0.150000006,           1.
     13,           0.,           0.,           5.
     14,           0.,           0.,           1.
     15,           0.,  0.150000006,           1.
     16,           0.,  0.150000006,           5.
     17,           0.,  0.150000006,           0.
     18,           0.,           0.,           0.
     19,          50.,  0.150000006,           0.
     20,          50.,           0.,           0.
** ... 2626 like lines cut
*Element, type=C3D8R
  1,   90,  499, 1431,  347,    1,   21,  315,   36
  2,  499,  500, 1432, 1431,   21,   22,  316,  315
  3,  500,  501, 1433, 1432,   22,   23,  317,  316
  4,  501,  502, 1434, 1433,   23,   24,  318,  317
  5,  502,  110,  423, 1434,   24,    2,   25,  318
  6,  347, 1431, 1435,  348,   36,  315,  319,   35
  7, 1431, 1432, 1436, 1435,  315,  316,  320,  319
  8, 1432, 1433, 1437, 1436,  316,  317,  321,  320
  9, 1433, 1434, 1438, 1437,  317,  318,  322,  321
 10, 1434,  423,  424, 1438,  318,   25,   26,  322
 11,  348, 1435, 1439,  349,   35,  319,  323,   34
 12, 1435, 1436, 1440, 1439,  319,  320,  324,  323
 13, 1436, 1437, 1441, 1440,  320,  321,  325,  324
 14, 1437, 1438, 1442, 1441,  321,  322,  326,  325
 15, 1438,  424,  425, 1442,  322,   26,   27,  326
 16,  349, 1439, 1443,  350,   34,  323,  327,   33
 17, 1439, 1440, 1444, 1443,  323,  324,  328,  327
 18, 1440, 1441, 1445, 1444,  324,  325,  329,  328
 19, 1441, 1442, 1446, 1445,  325,  326,  330,  329
 20, 1442,  425,  426, 1446,  326,   27,   28,  330
** ... 1980 like lines cut
*Nset, nset=_PickedSet8, internal, generate
    1,  2646,     1
*Elset, elset=_PickedSet8, internal, generate
    1,  2000,     1
*Nset, nset=XSymFace
    5,    6,    7,    8,   13,   14,   15,   16,   17,   18,   37,   38,   39,   40,   41,   42
   43,   44,   45,   46,   47,   48,   49,   50,   51,   52,  149,  150,  151,  152,  153,  154
  155,  156,  157,  158,  159,  160,  161,  162,  163,  164,  165,  166,  167,  168,  253,  254
  255,  256,  257,  258,  259,  260,  261,  262,  263,  264,  265,  266,  267,  268,  331,  332
  333,  334,  335,  336,  337,  338,  339,  340,  341,  342,  343,  344,  345,  346,  675,  676
  677,  678,  679,  680,  681,  682,  683,  684,  685,  686,  687,  688,  689,  690,  691,  692
  693,  694,  695,  696,  697,  698, 1095, 1096, 1097, 1098, 1099, 1100, 1101, 1102, 1103, 1104
 1105, 1106, 1107, 1108, 1109, 1110, 1263, 1264, 1265, 1266, 1267, 1268, 1269, 1270
*Elset, elset=XSymFace
  476,  477,  478,  479,  480,  481,  482,  483,  484,  485,  486,  487,  488,  489,  490,  491
  492,  493,  494,  495,  496,  497,  498,  499,  500, 1166, 1167, 1168, 1169, 1170, 1171, 1172
 1173, 1174, 1175, 1176, 1177, 1178, 1179, 1180, 1181, 1182, 1183, 1184, 1185, 1186, 1187, 1188
 1189, 1190, 1191, 1192, 1193, 1194, 1195, 1196, 1197, 1198, 1199, 1200, 1676, 1677, 1678, 1679
 1680, 1681, 1682, 1683, 1684, 1685, 1686, 1687, 1688, 1689, 1690, 1691, 1692, 1693, 1694, 1695
 1696, 1697, 1698, 1699, 1700, 1701, 1702, 1703, 1704, 1705, 1706, 1707, 1708, 1709, 1710, 1711
 1712, 1713, 1714, 1715
*Nset, nset=ZSymFace
   17,   18,   19,   20,  263,  264,  265,  266,  271,  272,  273,  274,  277,  278,  279,  280
  281,  282,  283,  284,  285,  286,  287,  288,  289,  290,  291,  292,  293,  294,  295,  296
  297,  298,  299,  300,  301,  302,  303,  304,  305,  306,  307,  308,  309,  310,  311,  312
  313,  314, 1355, 1356, 1357, 1358, 1359, 1360, 1361, 1362, 1363, 1364, 1365, 1366, 1367, 1368
 1369, 1370, 1371, 1372, 1373, 1374, 1375, 1376, 1377, 1378, 1379, 1380, 1381, 1382, 1383, 1384
 1385, 1386, 1387, 1388, 1389, 1390, 1391, 1392, 1393, 1394, 1395, 1396, 1397, 1398, 1399, 1400
 1401, 1402, 1403, 1404, 1405, 1406, 1407, 1408, 1409, 1410, 1411, 1412, 1413, 1414, 1415, 1416
 1417, 1418, 1419, 1420, 1421, 1422, 1423, 1424, 1425, 1426, 1427, 1428, 1429, 1430
*Elset, elset=ZSymFace
 1711, 1712, 1713, 1714, 1715, 1726, 1727, 1728, 1729, 1730, 1741, 1742, 1743, 1744, 1745, 1756
 1757, 1758, 1759, 1760, 1771, 1772, 1773, 1774, 1775, 1786, 1787, 1788, 1789, 1790, 1801, 1802
 1803, 1804, 1805, 1816, 1817, 1818, 1819, 1820, 1831, 1832, 1833, 1834, 1835, 1846, 1847, 1848
 1849, 1850, 1861, 1862, 1863, 1864, 1865, 1876, 1877, 1878, 1879, 1880, 1891, 1892, 1893, 1894
 1895, 1906, 1907, 1908, 1909, 1910, 1921, 1922, 1923, 1924, 1925, 1936, 1937, 1938, 1939, 1940
 1951, 1952, 1953, 1954, 1955, 1966, 1967, 1968, 1969, 1970, 1981, 1982, 1983, 1984, 1985, 1996
 1997, 1998, 1999, 2000
*Elset, elset=_Top_S4, internal
    5,   10,   15,   20,   25,   30,   35,   40,   45,   50,   55,   60,   65,   70,   75,   80
   85,   90,   95,  100,  105,  110,  115,  120,  125,  130,  135,  140,  145,  150,  155,  160
  165,  170,  175,  180,  185,  190,  195,  200,  205,  210,  215,  220,  225,  230,  235,  240
  245,  250,  255,  260,  265,  270,  275,  280,  285,  290,  295,  300,  305,  310,  315,  320
  325,  330,  335,  340,  345,  350,  355,  360,  365,  370,  375,  380,  385,  390,  395,  400
  405,  410,  415,  420,  425,  430,  435,  440,  445,  450,  455,  460,  465,  470,  475,  480
  485,  490,  495,  500, 1705, 1710, 1715, 1720, 1725, 1730, 1735, 1740, 1745, 1750, 1755, 1760
 1765, 1770, 1775, 1780, 1785, 1790, 1795, 1800, 1805, 1810, 1815, 1820, 1825, 1830, 1835, 1840
 1845, 1850, 1855, 1860, 1865, 1870, 1875, 1880, 1885, 1890, 1895, 1900, 1905, 1910, 1915, 1920
 1925, 1930, 1935, 1940, 1945, 1950, 1955, 1960, 1965, 1970, 1975, 1980, 1985, 1990, 1995, 2000
*Elset, elset=_Top_S6, internal, generate
  501,  1696,     5
*Surface, type=ELEMENT, name=Top
_Top_S4, S4
_Top_S6, S6
*Elset, elset=_Bottom_S4, internal, generate
  505,  1700,     5
*Elset, elset=_Bottom_S6, internal
    1,    6,   11,   16,   21,   26,   31,   36,   41,   46,   51,   56,   61,   66,   71,   76
   81,   86,   91,   96,  101,  106,  111,  116,  121,  126,  131,  136,  141,  146,  151,  156
  161,  166,  171,  176,  181,  186,  191,  196,  201,  206,  211,  216,  221,  226,  231,  236
  241,  246,  251,  256,  261,  266,  271,  276,  281,  286,  291,  296,  301,  306,  311,  316
  321,  326,  331,  336,  341,  346,  351,  356,  361,  366,  371,  376,  381,  386,  391,  396
  401,  406,  411,  416,  421,  426,  431,  436,  441,  446,  451,  456,  461,  466,  471,  476
  481,  486,  491,  496, 1701, 1706, 1711, 1716, 1721, 1726, 1731, 1736, 1741, 1746, 1751, 1756
 1761, 1766, 1771, 1776, 1781, 1786, 1791, 1796, 1801, 1806, 1811, 1816, 1821, 1826, 1831, 1836
 1841, 1846, 1851, 1856, 1861, 1866, 1871, 1876, 1881, 1886, 1891, 1896, 1901, 1906, 1911, 1916
 1921, 1926, 1931, 1936, 1941, 1946, 1951, 1956, 1961, 1966, 1971, 1976, 1981, 1986, 1991, 1996
*Surface, type=ELEMENT, name=Bottom
_Bottom_S4, S4
_Bottom_S6, S6
** Section: Sec_ActiveLayer
*Solid Section, elset=_PickedSet8, material=ActiveLayer_Porous_Calibratable
,
*End Part
**  
*Part, name=RigidRoller_CylindricalShell
*Node
      1,   49.7592354,  -4.90085697,          70.
      2,   49.0392647,  -9.75451565,          70.
      3,   47.8470154,  -14.5142336,          70.
      4,   46.1939774,  -19.1341724,          70.
      5,   44.0960617,  -23.5698376,          70.
      6,   41.5734825,   -27.778511,          70.
      7,   38.6505241,  -31.7196636,          70.
      8,   35.3553391,  -35.3553391,          70.
      9,   31.7196636,  -38.6505241,          70.
     10,    27.778511,  -41.5734825,          70.
     11,   23.5698376,  -44.0960617,          70.
     12,   19.1341724,  -46.1939774,          70.
     13,   14.5142336,  -47.8470154,          70.
     14,   9.75451565,  -49.0392647,          70.
     15,   4.90085697,  -49.7592354,          70.
     16,           0.,         -50.,          70.
     17,  -4.90085697,  -49.7592354,          70.
     18,  -9.75451565,  -49.0392647,          70.
     19,  -14.5142336,  -47.8470154,          70.
     20,  -19.1341724,  -46.1939774,          70.
** ... 940 like lines cut
*Element, type=R3D4
  1,  64,   1,  65, 128
  2,   1,   2,  66,  65
  3,   2,   3,  67,  66
  4,   3,   4,  68,  67
  5,   4,   5,  69,  68
  6,   5,   6,  70,  69
  7,   6,   7,  71,  70
  8,   7,   8,  72,  71
  9,   8,   9,  73,  72
 10,   9,  10,  74,  73
 11,  10,  11,  75,  74
 12,  11,  12,  76,  75
 13,  12,  13,  77,  76
 14,  13,  14,  78,  77
 15,  14,  15,  79,  78
 16,  15,  16,  80,  79
 17,  16,  17,  81,  80
 18,  17,  18,  82,  81
 19,  18,  19,  83,  82
 20,  19,  20,  84,  83
** ... 876 like lines cut
*Elset, elset=_ContactFace_SNEG, internal, generate
   1,  896,    1
*Surface, type=ELEMENT, name=ContactFace
_ContactFace_SNEG, SNEG
*End Part
**  
**
** ASSEMBLY
**
*Assembly, name=Assembly
**  
*Instance, name=ActiveLayer-1, part=ActiveLayer
*End Instance
**  
*Instance, name=LowerRoller-1, part=RigidRoller_CylindricalShell
          0.,         -50.,           0.
          0.,         -50.,           0.,           0.,         -49.,           0.,          90.
*End Instance
**  
*Instance, name=UpperRoller-1, part=RigidRoller_CylindricalShell
          0.,        50.15,           0.
          0.,        50.15,           0.,           0.,        51.15,           0.,          90.
*End Instance
**  
*Node
      1,           0.,   50.1500015,           0.
*Node
      2,           0.,         -50.,           0.
*Nset, nset=RP_LowerRoller
 2,
*Nset, nset=RP_UpperRoller
 1,
*Nset, nset=Sheet_All, instance=ActiveLayer-1, generate
    1,  2646,     1
*Elset, elset=Sheet_All, instance=ActiveLayer-1, generate
    1,  2000,     1
*Nset, nset=Sheet_XSymFace, instance=ActiveLayer-1
    5,    6,    7,    8,   13,   14,   15,   16,   17,   18,   37,   38,   39,   40,   41,   42
   43,   44,   45,   46,   47,   48,   49,   50,   51,   52,  149,  150,  151,  152,  153,  154
  155,  156,  157,  158,  159,  160,  161,  162,  163,  164,  165,  166,  167,  168,  253,  254
  255,  256,  257,  258,  259,  260,  261,  262,  263,  264,  265,  266,  267,  268,  331,  332
  333,  334,  335,  336,  337,  338,  339,  340,  341,  342,  343,  344,  345,  346,  675,  676
  677,  678,  679,  680,  681,  682,  683,  684,  685,  686,  687,  688,  689,  690,  691,  692
  693,  694,  695,  696,  697,  698, 1095, 1096, 1097, 1098, 1099, 1100, 1101, 1102, 1103, 1104
 1105, 1106, 1107, 1108, 1109, 1110, 1263, 1264, 1265, 1266, 1267, 1268, 1269, 1270
*Elset, elset=Sheet_XSymFace, instance=ActiveLayer-1
  476,  477,  478,  479,  480,  481,  482,  483,  484,  485,  486,  487,  488,  489,  490,  491
  492,  493,  494,  495,  496,  497,  498,  499,  500, 1166, 1167, 1168, 1169, 1170, 1171, 1172
 1173, 1174, 1175, 1176, 1177, 1178, 1179, 1180, 1181, 1182, 1183, 1184, 1185, 1186, 1187, 1188
 1189, 1190, 1191, 1192, 1193, 1194, 1195, 1196, 1197, 1198, 1199, 1200, 1676, 1677, 1678, 1679
 1680, 1681, 1682, 1683, 1684, 1685, 1686, 1687, 1688, 1689, 1690, 1691, 1692, 1693, 1694, 1695
 1696, 1697, 1698, 1699, 1700, 1701, 1702, 1703, 1704, 1705, 1706, 1707, 1708, 1709, 1710, 1711
 1712, 1713, 1714, 1715
*Nset, nset=Sheet_ZSymFace, instance=ActiveLayer-1
   17,   18,   19,   20,  263,  264,  265,  266,  271,  272,  273,  274,  277,  278,  279,  280
  281,  282,  283,  284,  285,  286,  287,  288,  289,  290,  291,  292,  293,  294,  295,  296
  297,  298,  299,  300,  301,  302,  303,  304,  305,  306,  307,  308,  309,  310,  311,  312
  313,  314, 1355, 1356, 1357, 1358, 1359, 1360, 1361, 1362, 1363, 1364, 1365, 1366, 1367, 1368
 1369, 1370, 1371, 1372, 1373, 1374, 1375, 1376, 1377, 1378, 1379, 1380, 1381, 1382, 1383, 1384
 1385, 1386, 1387, 1388, 1389, 1390, 1391, 1392, 1393, 1394, 1395, 1396, 1397, 1398, 1399, 1400
 1401, 1402, 1403, 1404, 1405, 1406, 1407, 1408, 1409, 1410, 1411, 1412, 1413, 1414, 1415, 1416
 1417, 1418, 1419, 1420, 1421, 1422, 1423, 1424, 1425, 1426, 1427, 1428, 1429, 1430
*Elset, elset=Sheet_ZSymFace, instance=ActiveLayer-1
 1711, 1712, 1713, 1714, 1715, 1726, 1727, 1728, 1729, 1730, 1741, 1742, 1743, 1744, 1745, 1756
 1757, 1758, 1759, 1760, 1771, 1772, 1773, 1774, 1775, 1786, 1787, 1788, 1789, 1790, 1801, 1802
 1803, 1804, 1805, 1816, 1817, 1818, 1819, 1820, 1831, 1832, 1833, 1834, 1835, 1846, 1847, 1848
 1849, 1850, 1861, 1862, 1863, 1864, 1865, 1876, 1877, 1878, 1879, 1880, 1891, 1892, 1893, 1894
 1895, 1906, 1907, 1908, 1909, 1910, 1921, 1922, 1923, 1924, 1925, 1936, 1937, 1938, 1939, 1940
 1951, 1952, 1953, 1954, 1955, 1966, 1967, 1968, 1969, 1970, 1981, 1982, 1983, 1984, 1985, 1996
 1997, 1998, 1999, 2000
*Nset, nset=_PickedSet19, internal, instance=UpperRoller-1, generate
   1,  960,    1
*Elset, elset=_PickedSet19, internal, instance=UpperRoller-1, generate
   1,  896,    1
*Nset, nset=_PickedSet20, internal, instance=LowerRoller-1, generate
   1,  960,    1
*Elset, elset=_PickedSet20, internal, instance=LowerRoller-1, generate
   1,  896,    1
*Elset, elset=_LowerRoller_Contact_SPOS, internal, instance=LowerRoller-1, generate
   1,  896,    1
*Elset, elset=_LowerRoller_Contact_SNEG, internal, instance=LowerRoller-1, generate
   1,  896,    1
*Surface, type=ELEMENT, name=LowerRoller_Contact
_LowerRoller_Contact_SPOS, SPOS
_LowerRoller_Contact_SNEG, SNEG
*Elset, elset=_Sheet_Bottom_S4, internal, instance=ActiveLayer-1, generate
  505,  1700,     5
*Elset, elset=_Sheet_Bottom_S6, internal, instance=ActiveLayer-1
    1,    6,   11,   16,   21,   26,   31,   36,   41,   46,   51,   56,   61,   66,   71,   76
   81,   86,   91,   96,  101,  106,  111,  116,  121,  126,  131,  136,  141,  146,  151,  156
  161,  166,  171,  176,  181,  186,  191,  196,  201,  206,  211,  216,  221,  226,  231,  236
  241,  246,  251,  256,  261,  266,  271,  276,  281,  286,  291,  296,  301,  306,  311,  316
  321,  326,  331,  336,  341,  346,  351,  356,  361,  366,  371,  376,  381,  386,  391,  396
  401,  406,  411,  416,  421,  426,  431,  436,  441,  446,  451,  456,  461,  466,  471,  476
  481,  486,  491,  496, 1701, 1706, 1711, 1716, 1721, 1726, 1731, 1736, 1741, 1746, 1751, 1756
 1761, 1766, 1771, 1776, 1781, 1786, 1791, 1796, 1801, 1806, 1811, 1816, 1821, 1826, 1831, 1836
 1841, 1846, 1851, 1856, 1861, 1866, 1871, 1876, 1881, 1886, 1891, 1896, 1901, 1906, 1911, 1916
 1921, 1926, 1931, 1936, 1941, 1946, 1951, 1956, 1961, 1966, 1971, 1976, 1981, 1986, 1991, 1996
*Surface, type=ELEMENT, name=Sheet_Bottom
_Sheet_Bottom_S4, S4
_Sheet_Bottom_S6, S6
*Elset, elset=_Sheet_Top_S4, internal, instance=ActiveLayer-1
    5,   10,   15,   20,   25,   30,   35,   40,   45,   50,   55,   60,   65,   70,   75,   80
   85,   90,   95,  100,  105,  110,  115,  120,  125,  130,  135,  140,  145,  150,  155,  160
  165,  170,  175,  180,  185,  190,  195,  200,  205,  210,  215,  220,  225,  230,  235,  240
  245,  250,  255,  260,  265,  270,  275,  280,  285,  290,  295,  300,  305,  310,  315,  320
  325,  330,  335,  340,  345,  350,  355,  360,  365,  370,  375,  380,  385,  390,  395,  400
  405,  410,  415,  420,  425,  430,  435,  440,  445,  450,  455,  460,  465,  470,  475,  480
  485,  490,  495,  500, 1705, 1710, 1715, 1720, 1725, 1730, 1735, 1740, 1745, 1750, 1755, 1760
 1765, 1770, 1775, 1780, 1785, 1790, 1795, 1800, 1805, 1810, 1815, 1820, 1825, 1830, 1835, 1840
 1845, 1850, 1855, 1860, 1865, 1870, 1875, 1880, 1885, 1890, 1895, 1900, 1905, 1910, 1915, 1920
 1925, 1930, 1935, 1940, 1945, 1950, 1955, 1960, 1965, 1970, 1975, 1980, 1985, 1990, 1995, 2000
*Elset, elset=_Sheet_Top_S6, internal, instance=ActiveLayer-1, generate
  501,  1696,     5
*Surface, type=ELEMENT, name=Sheet_Top
_Sheet_Top_S4, S4
_Sheet_Top_S6, S6
*Elset, elset=_UpperRoller_Contact_SPOS, internal, instance=UpperRoller-1, generate
   1,  896,    1
*Elset, elset=_UpperRoller_Contact_SNEG, internal, instance=UpperRoller-1, generate
   1,  896,    1
*Surface, type=ELEMENT, name=UpperRoller_Contact
_UpperRoller_Contact_SPOS, SPOS
_UpperRoller_Contact_SNEG, SNEG
** Constraint: Rigid_LowerRoller
*Rigid Body, ref node=RP_LowerRoller, elset=_PickedSet20
** Constraint: Rigid_UpperRoller
*Rigid Body, ref node=RP_UpperRoller, elset=_PickedSet19
*Elset, elset=__GeneralContact_RollerSheet_gcs0_22_SPOS, internal, instance=LowerRoller-1, generate
   1,  896,    1
*Surface, type=ELEMENT, name=_GeneralContact_RollerSheet_gcs0_22, internal
__GeneralContact_RollerSheet_gcs0_22_SPOS, SPOS
*Elset, elset=__GeneralContact_RollerSheet_gcs0_23_SNEG, internal, instance=LowerRoller-1, generate
   1,  896,    1
*Surface, type=ELEMENT, name=_GeneralContact_RollerSheet_gcs0_23, internal
__GeneralContact_RollerSheet_gcs0_23_SNEG, SNEG
*Elset, elset=__GeneralContact_RollerSheet_gcs0_24_SPOS, internal, instance=UpperRoller-1, generate
   1,  896,    1
*Surface, type=ELEMENT, name=_GeneralContact_RollerSheet_gcs0_24, internal
__GeneralContact_RollerSheet_gcs0_24_SPOS, SPOS
*Elset, elset=__GeneralContact_RollerSheet_gcs0_25_SNEG, internal, instance=UpperRoller-1, generate
   1,  896,    1
*Surface, type=ELEMENT, name=_GeneralContact_RollerSheet_gcs0_25, internal
__GeneralContact_RollerSheet_gcs0_25_SNEG, SNEG
*End Assembly
*Amplitude, name=Amp_Upper_Drop, definition=SMOOTH STEP
             0.,              0.,              1.,              1.
** 
** MATERIALS
** 
*Material, name=ActiveLayer_Porous_Calibratable
*Cap Plasticity
 0.0032,    5.,   0.8, 0.048,  0.02,    1.
*Cap Hardening
  0.048,   0.
 0.0496, 0.05
 0.0528,  0.1
 0.0576, 0.15
  0.064, 0.18
  0.072,  0.2
  0.088, 0.22
  0.112, 0.24
  0.152, 0.26
  0.216, 0.28
  0.312,  0.3
  0.384, 0.31
   0.48, 0.32
  0.592, 0.33
*Density
 2.55e-09,
*Elastic
6500., 0.01
** 
** INTERACTION PROPERTIES
** 
*Surface Interaction, name=Contact_Roller_Active_mu0p1
1.,
*Friction, slip tolerance=0.005
 0.1,
*Surface Behavior, pressure-overclosure=HARD
** 
** BOUNDARY CONDITIONS
** 
** Name: BC_Lower_RP_Fixed Type: 位移/转角
*Boundary
RP_LowerRoller, 1, 1
RP_LowerRoller, 2, 2
RP_LowerRoller, 3, 3
RP_LowerRoller, 4, 4
RP_LowerRoller, 5, 5
RP_LowerRoller, 6, 6
** Name: BC_Sheet_XSym Type: 对称/反对称/完全固定
*Boundary
Sheet_XSymFace, XSYMM
** Name: BC_Sheet_ZSym Type: 对称/反对称/完全固定
*Boundary
Sheet_ZSymFace, ZSYMM
** Name: BC_Upper_RP_Guide Type: 位移/转角
*Boundary
RP_UpperRoller, 1, 1
RP_UpperRoller, 3, 3
RP_UpperRoller, 5, 5
RP_UpperRoller, 6, 6
** 
** INTERACTIONS
** 
** Interaction: GeneralContact_RollerSheet
*Contact
*Contact Inclusions, ALL EXTERIOR
*Contact Property Assignment
 ,  , Contact_Roller_Active_mu0p1
*Surface Property Assignment, property=GEOMETRIC CORRECTION
_GeneralContact_RollerSheet_gcs0_22, Circumferential, 0., -50., 0.,  1., -50., 6.12323e-17
_GeneralContact_RollerSheet_gcs0_23, Circumferential, 0., -50., 0.,  1., -50., 6.12323e-17
_GeneralContact_RollerSheet_gcs0_24, Circumferential, 0., 50.15, 0.,  1., 50.15, 6.12323e-17
_GeneralContact_RollerSheet_gcs0_25, Circumferential, 0., 50.15, 0.,  1., 50.15, 6.12323e-17
** ----------------------------------------------------------------
** 
** STEP: Press_Down
** 
*Step, name=Press_Down, nlgeom=YES, inc=10000
*Static, stabilize=0.0002, allsdtol=0, continue=NO
0.001, 1., 1e-12, 0.005
** 
** BOUNDARY CONDITIONS
** 
** Name: BC_Upper_RP_Drop Type: 位移/转角
*Boundary, amplitude=Amp_Upper_Drop
RP_UpperRoller, 2, 2, -0.015
** 
** OUTPUT REQUESTS
** 
*Restart, write, frequency=0
** 
** FIELD OUTPUT: F_Sheet_StressStrainContact
** 
*Output, field, number interval=40, time marks=NO
*Node Output, nset=Sheet_All
RF, U
*Element Output, elset=Sheet_All, directions=YES
LE, PE, PEEQ, S
*Contact Output, nset=Sheet_All
CSTATUS, CSTRESS
** 
** HISTORY OUTPUT: H-Output-1
** 
*Output, history, variable=PRESELECT
** 
** HISTORY OUTPUT: H_LowerRoller_RP
** 
*Output, history, number interval=100, time marks=NO
*Node Output, nset=RP_LowerRoller
RF1, RF2, RF3, RM1, RM2, RM3, U1, U2
U3, UR1
** 
** HISTORY OUTPUT: H_UpperRoller_RP
** 
*Node Output, nset=RP_UpperRoller
RF1, RF2, RF3, RM1, RM2, RM3, U1, U2
U3, UR1
*End Step
